  118
Nonperiodic system
N      -0.070831     0.808070     0.354497    12.520037
C       0.986529     0.221714     1.085215    11.482807
C       2.187487     0.906595     1.278136    13.096276
C       3.231863     0.321920     1.975812    13.085574
C       3.087182    -0.945178     2.540492    11.517761
C       1.880573    -1.623032     2.363348    13.048421
C       0.852800    -1.057824     1.628931    13.072159
H       2.309512     1.897369     0.856375     1.697476
H       4.163281     0.861099     2.102833     1.686882
H       1.761879    -2.612564     2.790126     1.691929
H      -0.073356    -1.602423     1.487529     1.685086
C       0.204972     1.561102    -0.809650    11.485986
C      -0.463286     2.760774    -1.056366    13.079405
C      -0.194092     3.499255    -2.197642    13.066226
C       0.750092     3.055830    -3.122896    11.514768
C       1.420502     1.857867    -2.875516    13.043273
C       1.151800     1.119617    -1.735942    13.054043
H      -1.194398     3.119744    -0.341435     1.692388
H      -0.715077     4.433652    -2.370507     1.696876
H       2.153180     1.503826    -3.591923     1.689054
H       1.674226     0.186644    -1.559718     1.691654
C      -1.405117     0.664544     0.799405    11.501610
C      -2.434021     0.415529    -0.110877    13.039121
C      -3.741098     0.277825     0.322854    13.046449
C      -4.056840     0.382764     1.677610    11.528317
C      -3.030556     0.633415     2.587809    13.065168
C      -1.721647     0.771462     2.153930    13.109972
H      -2.201222     0.324444    -1.165374     1.691742
H      -4.532296     0.078929    -0.391163     1.690093
H      -3.261552     0.729295     3.642227     1.688142
H      -0.934146     0.973736     2.870498     1.681853
N       4.138450    -1.564031     3.260355    12.638640
C       4.981042    -0.818915     4.107890    11.437209
C       4.465746     0.237814     4.867658    13.252206
C       5.290829     0.953512     5.720656    12.651193
C       6.635620     0.623644     5.851437    12.949403
C       7.145365    -0.432249     5.108048    12.611027
C       6.333134    -1.145439     4.236987    13.259477
H       3.415611     0.491642     4.785408     1.727121
H       4.872923     1.769613     6.299738     1.689195
H       7.274909     1.180939     6.525687     1.705695
H       8.191277    -0.704201     5.196741     1.680566
H       6.744109    -1.963138     3.657409     1.753180
C       4.496944    -2.892281     2.900902    11.682795
C       4.528137    -3.912797     3.899915    12.167490
C       4.907699    -5.227303     3.516680    11.834236
C       5.210337    -5.499755     2.158750    13.032587
C       5.139160    -4.508933     1.219985    12.673563
C       4.790327    -3.196032     1.595515    13.099268
C       4.176695    -3.667774     5.251641    12.957719
C       4.222887    -4.673540     6.177579    12.659129
C       4.622522    -5.975234     5.803572    12.728993
C       4.952198    -6.244076     4.504443    12.963012
H       5.490648    -6.509130     1.876988     1.701502
H       5.365127    -4.721530     0.181428     1.668422
H       4.749048    -2.408865     0.851291     1.673712
H       3.869502    -2.671817     5.544138     1.794468
H       3.949601    -4.471789     7.206968     1.674565
H       4.660078    -6.761109     6.549379     1.682221
H       5.249404    -7.244489     4.207346     1.706708
N       1.060628     3.802917    -4.286318    12.648357
C       0.058983     4.488799    -5.000862    11.430662
C      -1.215614     3.928497    -5.145880    13.239794
C      -2.192998     4.592015    -5.870346    12.662497
C      -1.920342     5.811786    -6.480619    12.953536
C      -0.652861     6.362460    -6.348649    12.616482
C       0.329380     5.716163    -5.610510    13.251739
H      -1.432834     2.970620    -4.688421     1.730581
H      -3.174796     4.142343    -5.969588     1.678559
H      -2.685370     6.322845    -7.052828     1.704210
H      -0.421629     7.312468    -6.817462     1.681547
H       1.312579     6.159427    -5.509154     1.756402
C       2.429983     4.085649    -4.544920    11.672301
C       2.995705     3.749527    -5.812811    12.159393
C       4.361775     4.059254    -6.050685    11.847998
C       5.132571     4.657850    -5.022352    13.028830
C       4.570880     4.937643    -3.808176    12.678350
C       3.209582     4.659130    -3.572326    13.114011
C       2.252032     3.102679    -6.832191    12.979207
C       2.832011     2.800640    -8.033680    12.655582
C       4.183061     3.128684    -8.280674    12.739550
C       4.928455     3.738890    -7.310730    12.968314
H       6.176713     4.881720    -5.213240     1.700522
H       5.164085     5.389862    -3.021735     1.667211
H       2.763148     4.895752    -2.613193     1.676610
H       1.215922     2.848742    -6.647940     1.786124
H       2.251750     2.304195    -8.803006     1.674200
H       4.627852     2.888448    -9.239677     1.680002
H       5.970327     3.983899    -7.489334     1.705860
N      -5.406005     0.259589     2.092248    12.643093
C      -5.743499    -0.387378     3.297145    11.432038
C      -5.032867    -1.518239     3.716259    13.248376
C      -5.382681    -2.169286     4.888541    12.652741
C      -6.454082    -1.724516     5.655909    12.955875
C      -7.168001    -0.610847     5.234726    12.598094
C      -6.816176     0.060558     4.071661    13.246317
H      -4.207330    -1.882411     3.116361     1.725201
H      -4.818820    -3.042615     5.197280     1.686248
H      -6.728894    -2.241695     6.567423     1.704572
H      -8.006403    -0.249679     5.819866     1.684152
H      -7.376676     0.932306     3.756357     1.761923
C      -6.381149     1.043006     1.415981    11.682081
C      -7.528632     0.410287     0.847188    12.164807
C      -8.495533     1.219275     0.191890    11.829746
C      -8.284126     2.617400     0.089699    13.048725
C      -7.159850     3.189143     0.616128    12.675851
C      -6.208583     2.398483     1.291622    13.091714
C      -7.728047    -0.992774     0.894913    12.957095
C      -8.842722    -1.558105     0.338999    12.673128
C      -9.816315    -0.753477    -0.292379    12.731715
C      -9.643063     0.600491    -0.366442    12.967852
H      -9.025475     3.223275    -0.420325     1.698722
H      -6.997959     4.257540     0.531310     1.666768
H      -5.324945     2.856786     1.720984     1.678722
H      -6.985058    -1.614677     1.377678     1.795468
H      -8.980751    -2.632425     0.381408     1.664572
H     -10.697513    -1.214735    -0.723592     1.681721
H     -10.381496     1.224084    -0.859681     1.706497
  
Same information as above printed with atom number.
   1 N     -0.070831     0.808070     0.354497    12.520037
   2 C      0.986529     0.221714     1.085215    11.482807
   3 C      2.187487     0.906595     1.278136    13.096276
   4 C      3.231863     0.321920     1.975812    13.085574
   5 C      3.087182    -0.945178     2.540492    11.517761
   6 C      1.880573    -1.623032     2.363348    13.048421
   7 C      0.852800    -1.057824     1.628931    13.072159
   8 H      2.309512     1.897369     0.856375     1.697476
   9 H      4.163281     0.861099     2.102833     1.686882
  10 H      1.761879    -2.612564     2.790126     1.691929
  11 H     -0.073356    -1.602423     1.487529     1.685086
  12 C      0.204972     1.561102    -0.809650    11.485986
  13 C     -0.463286     2.760774    -1.056366    13.079405
  14 C     -0.194092     3.499255    -2.197642    13.066226
  15 C      0.750092     3.055830    -3.122896    11.514768
  16 C      1.420502     1.857867    -2.875516    13.043273
  17 C      1.151800     1.119617    -1.735942    13.054043
  18 H     -1.194398     3.119744    -0.341435     1.692388
  19 H     -0.715077     4.433652    -2.370507     1.696876
  20 H      2.153180     1.503826    -3.591923     1.689054
  21 H      1.674226     0.186644    -1.559718     1.691654
  22 C     -1.405117     0.664544     0.799405    11.501610
  23 C     -2.434021     0.415529    -0.110877    13.039121
  24 C     -3.741098     0.277825     0.322854    13.046449
  25 C     -4.056840     0.382764     1.677610    11.528317
  26 C     -3.030556     0.633415     2.587809    13.065168
  27 C     -1.721647     0.771462     2.153930    13.109972
  28 H     -2.201222     0.324444    -1.165374     1.691742
  29 H     -4.532296     0.078929    -0.391163     1.690093
  30 H     -3.261552     0.729295     3.642227     1.688142
  31 H     -0.934146     0.973736     2.870498     1.681853
  32 N      4.138450    -1.564031     3.260355    12.638640
  33 C      4.981042    -0.818915     4.107890    11.437209
  34 C      4.465746     0.237814     4.867658    13.252206
  35 C      5.290829     0.953512     5.720656    12.651193
  36 C      6.635620     0.623644     5.851437    12.949403
  37 C      7.145365    -0.432249     5.108048    12.611027
  38 C      6.333134    -1.145439     4.236987    13.259477
  39 H      3.415611     0.491642     4.785408     1.727121
  40 H      4.872923     1.769613     6.299738     1.689195
  41 H      7.274909     1.180939     6.525687     1.705695
  42 H      8.191277    -0.704201     5.196741     1.680566
  43 H      6.744109    -1.963138     3.657409     1.753180
  44 C      4.496944    -2.892281     2.900902    11.682795
  45 C      4.528137    -3.912797     3.899915    12.167490
  46 C      4.907699    -5.227303     3.516680    11.834236
  47 C      5.210337    -5.499755     2.158750    13.032587
  48 C      5.139160    -4.508933     1.219985    12.673563
  49 C      4.790327    -3.196032     1.595515    13.099268
  50 C      4.176695    -3.667774     5.251641    12.957719
  51 C      4.222887    -4.673540     6.177579    12.659129
  52 C      4.622522    -5.975234     5.803572    12.728993
  53 C      4.952198    -6.244076     4.504443    12.963012
  54 H      5.490648    -6.509130     1.876988     1.701502
  55 H      5.365127    -4.721530     0.181428     1.668422
  56 H      4.749048    -2.408865     0.851291     1.673712
  57 H      3.869502    -2.671817     5.544138     1.794468
  58 H      3.949601    -4.471789     7.206968     1.674565
  59 H      4.660078    -6.761109     6.549379     1.682221
  60 H      5.249404    -7.244489     4.207346     1.706708
  61 N      1.060628     3.802917    -4.286318    12.648357
  62 C      0.058983     4.488799    -5.000862    11.430662
  63 C     -1.215614     3.928497    -5.145880    13.239794
  64 C     -2.192998     4.592015    -5.870346    12.662497
  65 C     -1.920342     5.811786    -6.480619    12.953536
  66 C     -0.652861     6.362460    -6.348649    12.616482
  67 C      0.329380     5.716163    -5.610510    13.251739
  68 H     -1.432834     2.970620    -4.688421     1.730581
  69 H     -3.174796     4.142343    -5.969588     1.678559
  70 H     -2.685370     6.322845    -7.052828     1.704210
  71 H     -0.421629     7.312468    -6.817462     1.681547
  72 H      1.312579     6.159427    -5.509154     1.756402
  73 C      2.429983     4.085649    -4.544920    11.672301
  74 C      2.995705     3.749527    -5.812811    12.159393
  75 C      4.361775     4.059254    -6.050685    11.847998
  76 C      5.132571     4.657850    -5.022352    13.028830
  77 C      4.570880     4.937643    -3.808176    12.678350
  78 C      3.209582     4.659130    -3.572326    13.114011
  79 C      2.252032     3.102679    -6.832191    12.979207
  80 C      2.832011     2.800640    -8.033680    12.655582
  81 C      4.183061     3.128684    -8.280674    12.739550
  82 C      4.928455     3.738890    -7.310730    12.968314
  83 H      6.176713     4.881720    -5.213240     1.700522
  84 H      5.164085     5.389862    -3.021735     1.667211
  85 H      2.763148     4.895752    -2.613193     1.676610
  86 H      1.215922     2.848742    -6.647940     1.786124
  87 H      2.251750     2.304195    -8.803006     1.674200
  88 H      4.627852     2.888448    -9.239677     1.680002
  89 H      5.970327     3.983899    -7.489334     1.705860
  90 N     -5.406005     0.259589     2.092248    12.643093
  91 C     -5.743499    -0.387378     3.297145    11.432038
  92 C     -5.032867    -1.518239     3.716259    13.248376
  93 C     -5.382681    -2.169286     4.888541    12.652741
  94 C     -6.454082    -1.724516     5.655909    12.955875
  95 C     -7.168001    -0.610847     5.234726    12.598094
  96 C     -6.816176     0.060558     4.071661    13.246317
  97 H     -4.207330    -1.882411     3.116361     1.725201
  98 H     -4.818820    -3.042615     5.197280     1.686248
  99 H     -6.728894    -2.241695     6.567423     1.704572
 100 H     -8.006403    -0.249679     5.819866     1.684152
 101 H     -7.376676     0.932306     3.756357     1.761923
 102 C     -6.381149     1.043006     1.415981    11.682081
 103 C     -7.528632     0.410287     0.847188    12.164807
 104 C     -8.495533     1.219275     0.191890    11.829746
 105 C     -8.284126     2.617400     0.089699    13.048725
 106 C     -7.159850     3.189143     0.616128    12.675851
 107 C     -6.208583     2.398483     1.291622    13.091714
 108 C     -7.728047    -0.992774     0.894913    12.957095
 109 C     -8.842722    -1.558105     0.338999    12.673128
 110 C     -9.816315    -0.753477    -0.292379    12.731715
 111 C     -9.643063     0.600491    -0.366442    12.967852
 112 H     -9.025475     3.223275    -0.420325     1.698722
 113 H     -6.997959     4.257540     0.531310     1.666768
 114 H     -5.324945     2.856786     1.720984     1.678722
 115 H     -6.985058    -1.614677     1.377678     1.795468
 116 H     -8.980751    -2.632425     0.381408     1.664572
 117 H    -10.697513    -1.214735    -0.723592     1.681721
 118 H    -10.381496     1.224084    -0.859681     1.706497
