   72
Nonperiodic system
N      -2.400053     0.345744    -0.441283    26.078481
C      -3.552360    -0.419819    -0.603392    26.786998
C      -4.542400     0.054945     0.276640    28.929070
C      -3.959747     1.161887     1.004661    28.880046
C      -2.641185     1.308934     0.535709    26.825567
C      -3.777786    -1.511987    -1.437470    31.286620
C      -5.026503    -2.110932    -1.386134    29.782104
C      -6.026759    -1.643433    -0.525882    30.478603
C      -5.789805    -0.564750     0.309841    30.074704
C      -4.443845     2.027254     1.983346    30.043060
C      -3.612589     3.021423     2.472007    30.463339
C      -2.307757     3.161750     1.985346    29.807559
C      -1.803104     2.314051     1.011990    31.199313
H      -3.006978    -1.885949    -2.100171     3.616454
H      -5.229571    -2.961555    -2.026631     3.371411
H      -6.992349    -2.134854    -0.513114     3.438562
H      -6.561049    -0.208150     0.983408     3.419153
H      -5.457958     1.924179     2.353055     3.427160
H      -3.973777     3.701160     3.234552     3.437254
H      -1.675946     3.951506     2.375250     3.382600
H      -0.795030     2.435755     0.634958     3.622637
C      -0.000838     0.000629    -0.447852    31.995597
C       1.188416    -0.170941    -1.148377    26.083548
C       1.192765    -0.171742    -2.539206    31.998025
C      -0.002204     0.001494    -3.229395    26.076272
C      -1.190805     0.172624    -1.147087    26.080294
C      -1.196478     0.174349    -2.537906    31.940445
H      -0.000261     0.000320     0.635002     3.681121
H       2.120463    -0.306390    -3.081335     3.688927
H      -2.124671     0.309283    -3.079021     3.693398
N       2.398348    -0.344715    -0.443871    26.055308
C       3.550813     0.420475    -0.607042    26.790287
C       4.541672    -0.055085     0.271633    28.933215
C       3.959630    -1.162493     0.999450    28.870255
C       2.640442    -1.308826     0.531929    26.833654
C       3.775544     1.513183    -1.440593    31.308503
C       5.024491     2.111838    -1.390151    29.770966
C       6.025495     1.643566    -0.531244    30.429326
C       5.789164     0.564409     0.304042    30.085918
C       4.444731    -2.028861     1.976695    30.059379
C       3.613852    -3.023272     2.465529    30.469682
C       2.308425    -3.162919     1.980308    29.774196
C       1.802784    -2.314242     1.008280    31.218853
H       3.004118     1.887875    -2.102163     3.612521
H       5.227056     2.962866    -2.030204     3.374584
H       6.991238     2.134682    -0.519073     3.444272
H       6.561116     0.207182     0.976533     3.419796
H       5.459275    -1.926294     2.345301     3.425091
H       3.975878    -3.703700     3.227076     3.438051
H       1.676862    -3.952872     2.370301     3.376027
H       0.794227    -2.435419     0.632398     3.623665
N      -0.002902     0.001876    -4.640211    26.061203
C      -0.520604     1.007783    -5.452740    26.821071
C      -0.334595     0.646119    -6.799866    28.890628
C       0.325973    -0.641742    -6.800513    28.929647
C       0.513786    -1.003807    -5.453704    26.833961
C      -1.107348     2.218899    -5.094524    31.221139
C      -1.522834     3.057009    -6.117155    29.817901
C      -1.356850     2.707130    -7.462130    30.489592
C      -0.760498     1.506354    -7.809577    30.007946
C       0.750567    -1.501695    -7.811019    30.012639
C       1.347379    -2.702596    -7.464673    30.466701
C       1.515119    -3.052833    -6.120040    29.847762
C       1.101027    -2.214972    -5.096621    31.211427
H      -1.232156     2.501607    -4.056336     3.623632
H      -1.984892     4.005010    -5.866549     3.371201
H      -1.695098     3.386005    -8.235891     3.437977
H      -0.623064     1.239208    -8.851435     3.432773
H       0.611782    -1.234298    -8.852630     3.430394
H       1.684631    -3.381235    -8.239048     3.439282
H       1.977429    -4.000916    -5.870272     3.367639
H       1.227153    -2.498071    -4.058721     3.622241
  
Same information as above printed with atom number.
   1 N     -2.400053     0.345744    -0.441283    26.078481
   2 C     -3.552360    -0.419819    -0.603392    26.786998
   3 C     -4.542400     0.054945     0.276640    28.929070
   4 C     -3.959747     1.161887     1.004661    28.880046
   5 C     -2.641185     1.308934     0.535709    26.825567
   6 C     -3.777786    -1.511987    -1.437470    31.286620
   7 C     -5.026503    -2.110932    -1.386134    29.782104
   8 C     -6.026759    -1.643433    -0.525882    30.478603
   9 C     -5.789805    -0.564750     0.309841    30.074704
  10 C     -4.443845     2.027254     1.983346    30.043060
  11 C     -3.612589     3.021423     2.472007    30.463339
  12 C     -2.307757     3.161750     1.985346    29.807559
  13 C     -1.803104     2.314051     1.011990    31.199313
  14 H     -3.006978    -1.885949    -2.100171     3.616454
  15 H     -5.229571    -2.961555    -2.026631     3.371411
  16 H     -6.992349    -2.134854    -0.513114     3.438562
  17 H     -6.561049    -0.208150     0.983408     3.419153
  18 H     -5.457958     1.924179     2.353055     3.427160
  19 H     -3.973777     3.701160     3.234552     3.437254
  20 H     -1.675946     3.951506     2.375250     3.382600
  21 H     -0.795030     2.435755     0.634958     3.622637
  22 C     -0.000838     0.000629    -0.447852    31.995597
  23 C      1.188416    -0.170941    -1.148377    26.083548
  24 C      1.192765    -0.171742    -2.539206    31.998025
  25 C     -0.002204     0.001494    -3.229395    26.076272
  26 C     -1.190805     0.172624    -1.147087    26.080294
  27 C     -1.196478     0.174349    -2.537906    31.940445
  28 H     -0.000261     0.000320     0.635002     3.681121
  29 H      2.120463    -0.306390    -3.081335     3.688927
  30 H     -2.124671     0.309283    -3.079021     3.693398
  31 N      2.398348    -0.344715    -0.443871    26.055308
  32 C      3.550813     0.420475    -0.607042    26.790287
  33 C      4.541672    -0.055085     0.271633    28.933215
  34 C      3.959630    -1.162493     0.999450    28.870255
  35 C      2.640442    -1.308826     0.531929    26.833654
  36 C      3.775544     1.513183    -1.440593    31.308503
  37 C      5.024491     2.111838    -1.390151    29.770966
  38 C      6.025495     1.643566    -0.531244    30.429326
  39 C      5.789164     0.564409     0.304042    30.085918
  40 C      4.444731    -2.028861     1.976695    30.059379
  41 C      3.613852    -3.023272     2.465529    30.469682
  42 C      2.308425    -3.162919     1.980308    29.774196
  43 C      1.802784    -2.314242     1.008280    31.218853
  44 H      3.004118     1.887875    -2.102163     3.612521
  45 H      5.227056     2.962866    -2.030204     3.374584
  46 H      6.991238     2.134682    -0.519073     3.444272
  47 H      6.561116     0.207182     0.976533     3.419796
  48 H      5.459275    -1.926294     2.345301     3.425091
  49 H      3.975878    -3.703700     3.227076     3.438051
  50 H      1.676862    -3.952872     2.370301     3.376027
  51 H      0.794227    -2.435419     0.632398     3.623665
  52 N     -0.002902     0.001876    -4.640211    26.061203
  53 C     -0.520604     1.007783    -5.452740    26.821071
  54 C     -0.334595     0.646119    -6.799866    28.890628
  55 C      0.325973    -0.641742    -6.800513    28.929647
  56 C      0.513786    -1.003807    -5.453704    26.833961
  57 C     -1.107348     2.218899    -5.094524    31.221139
  58 C     -1.522834     3.057009    -6.117155    29.817901
  59 C     -1.356850     2.707130    -7.462130    30.489592
  60 C     -0.760498     1.506354    -7.809577    30.007946
  61 C      0.750567    -1.501695    -7.811019    30.012639
  62 C      1.347379    -2.702596    -7.464673    30.466701
  63 C      1.515119    -3.052833    -6.120040    29.847762
  64 C      1.101027    -2.214972    -5.096621    31.211427
  65 H     -1.232156     2.501607    -4.056336     3.623632
  66 H     -1.984892     4.005010    -5.866549     3.371201
  67 H     -1.695098     3.386005    -8.235891     3.437977
  68 H     -0.623064     1.239208    -8.851435     3.432773
  69 H      0.611782    -1.234298    -8.852630     3.430394
  70 H      1.684631    -3.381235    -8.239048     3.439282
  71 H      1.977429    -4.000916    -5.870272     3.367639
  72 H      1.227153    -2.498071    -4.058721     3.622241
