   72
Nonperiodic system
N      -2.400053     0.345744    -0.441283    12.137439
C      -3.552360    -0.419819    -0.603392    11.526546
C      -4.542400     0.054945     0.276640    12.314813
C      -3.959747     1.161887     1.004661    12.303276
C      -2.641185     1.308934     0.535709    11.542121
C      -3.777786    -1.511987    -1.437470    13.246428
C      -5.026503    -2.110932    -1.386134    12.712436
C      -6.026759    -1.643433    -0.525882    12.955116
C      -5.789805    -0.564750     0.309841    12.826852
C      -4.443845     2.027254     1.983346    12.816728
C      -3.612589     3.021423     2.472007    12.948526
C      -2.307757     3.161750     1.985346    12.719091
C      -1.803104     2.314051     1.011990    13.219608
H      -3.006978    -1.885949    -2.100171     1.720304
H      -5.229571    -2.961555    -2.026631     1.668656
H      -6.992349    -2.134854    -0.513114     1.688862
H      -6.561049    -0.208150     0.983408     1.668576
H      -5.457958     1.924179     2.353055     1.671585
H      -3.973777     3.701160     3.234552     1.688870
H      -1.675946     3.951506     2.375250     1.675584
H      -0.795030     2.435755     0.634958     1.722406
C      -0.000838     0.000629    -0.447852    13.440107
C       1.188416    -0.170941    -1.148377    11.226630
C       1.192765    -0.171742    -2.539206    13.443791
C      -0.002204     0.001494    -3.229395    11.219443
C      -1.190805     0.172624    -1.147087    11.226623
C      -1.196478     0.174349    -2.537906    13.426000
H      -0.000261     0.000320     0.635002     1.689191
H       2.120463    -0.306390    -3.081335     1.689317
H      -2.124671     0.309283    -3.079021     1.691085
N       2.398348    -0.344715    -0.443871    12.130742
C       3.550813     0.420475    -0.607042    11.527127
C       4.541672    -0.055085     0.271633    12.314730
C       3.959630    -1.162493     0.999450    12.299280
C       2.640442    -1.308826     0.531929    11.544429
C       3.775544     1.513183    -1.440593    13.253660
C       5.024491     2.111838    -1.390151    12.708559
C       6.025495     1.643566    -0.531244    12.945179
C       5.789164     0.564409     0.304042    12.830413
C       4.444731    -2.028861     1.976695    12.821765
C       3.613852    -3.023272     2.465529    12.949692
C       2.308425    -3.162919     1.980308    12.710180
C       1.802784    -2.314242     1.008280    13.225791
H       3.004118     1.887875    -2.102163     1.715548
H       5.227056     2.962866    -2.030204     1.669624
H       6.991238     2.134682    -0.519073     1.690605
H       6.561116     0.207182     0.976533     1.668702
H       5.459275    -1.926294     2.345301     1.671147
H       3.975878    -3.703700     3.227076     1.689407
H       1.676862    -3.952872     2.370301     1.670675
H       0.794227    -2.435419     0.632398     1.723072
N      -0.002902     0.001876    -4.640211    12.131050
C      -0.520604     1.007783    -5.452740    11.538434
C      -0.334595     0.646119    -6.799866    12.304135
C       0.325973    -0.641742    -6.800513    12.317486
C       0.513786    -1.003807    -5.453704    11.544282
C      -1.107348     2.218899    -5.094524    13.228286
C      -1.522834     3.057009    -6.117155    12.722874
C      -1.356850     2.707130    -7.462130    12.958686
C      -0.760498     1.506354    -7.809577    12.807233
C       0.750567    -1.501695    -7.811019    12.807912
C       1.347379    -2.702596    -7.464673    12.951901
C       1.515119    -3.052833    -6.120040    12.731721
C       1.101027    -2.214972    -5.096621    13.224847
H      -1.232156     2.501607    -4.056336     1.718925
H      -1.984892     4.005010    -5.866549     1.669353
H      -1.695098     3.386005    -8.235891     1.689189
H      -0.623064     1.239208    -8.851435     1.673350
H       0.611782    -1.234298    -8.852630     1.672456
H       1.684631    -3.381235    -8.239048     1.689302
H       1.977429    -4.000916    -5.870272     1.668222
H       1.227153    -2.498071    -4.058721     1.718228
  
Same information as above printed with atom number.
   1 N     -2.400053     0.345744    -0.441283    12.137439
   2 C     -3.552360    -0.419819    -0.603392    11.526546
   3 C     -4.542400     0.054945     0.276640    12.314813
   4 C     -3.959747     1.161887     1.004661    12.303276
   5 C     -2.641185     1.308934     0.535709    11.542121
   6 C     -3.777786    -1.511987    -1.437470    13.246428
   7 C     -5.026503    -2.110932    -1.386134    12.712436
   8 C     -6.026759    -1.643433    -0.525882    12.955116
   9 C     -5.789805    -0.564750     0.309841    12.826852
  10 C     -4.443845     2.027254     1.983346    12.816728
  11 C     -3.612589     3.021423     2.472007    12.948526
  12 C     -2.307757     3.161750     1.985346    12.719091
  13 C     -1.803104     2.314051     1.011990    13.219608
  14 H     -3.006978    -1.885949    -2.100171     1.720304
  15 H     -5.229571    -2.961555    -2.026631     1.668656
  16 H     -6.992349    -2.134854    -0.513114     1.688862
  17 H     -6.561049    -0.208150     0.983408     1.668576
  18 H     -5.457958     1.924179     2.353055     1.671585
  19 H     -3.973777     3.701160     3.234552     1.688870
  20 H     -1.675946     3.951506     2.375250     1.675584
  21 H     -0.795030     2.435755     0.634958     1.722406
  22 C     -0.000838     0.000629    -0.447852    13.440107
  23 C      1.188416    -0.170941    -1.148377    11.226630
  24 C      1.192765    -0.171742    -2.539206    13.443791
  25 C     -0.002204     0.001494    -3.229395    11.219443
  26 C     -1.190805     0.172624    -1.147087    11.226623
  27 C     -1.196478     0.174349    -2.537906    13.426000
  28 H     -0.000261     0.000320     0.635002     1.689191
  29 H      2.120463    -0.306390    -3.081335     1.689317
  30 H     -2.124671     0.309283    -3.079021     1.691085
  31 N      2.398348    -0.344715    -0.443871    12.130742
  32 C      3.550813     0.420475    -0.607042    11.527127
  33 C      4.541672    -0.055085     0.271633    12.314730
  34 C      3.959630    -1.162493     0.999450    12.299280
  35 C      2.640442    -1.308826     0.531929    11.544429
  36 C      3.775544     1.513183    -1.440593    13.253660
  37 C      5.024491     2.111838    -1.390151    12.708559
  38 C      6.025495     1.643566    -0.531244    12.945179
  39 C      5.789164     0.564409     0.304042    12.830413
  40 C      4.444731    -2.028861     1.976695    12.821765
  41 C      3.613852    -3.023272     2.465529    12.949692
  42 C      2.308425    -3.162919     1.980308    12.710180
  43 C      1.802784    -2.314242     1.008280    13.225791
  44 H      3.004118     1.887875    -2.102163     1.715548
  45 H      5.227056     2.962866    -2.030204     1.669624
  46 H      6.991238     2.134682    -0.519073     1.690605
  47 H      6.561116     0.207182     0.976533     1.668702
  48 H      5.459275    -1.926294     2.345301     1.671147
  49 H      3.975878    -3.703700     3.227076     1.689407
  50 H      1.676862    -3.952872     2.370301     1.670675
  51 H      0.794227    -2.435419     0.632398     1.723072
  52 N     -0.002902     0.001876    -4.640211    12.131050
  53 C     -0.520604     1.007783    -5.452740    11.538434
  54 C     -0.334595     0.646119    -6.799866    12.304135
  55 C      0.325973    -0.641742    -6.800513    12.317486
  56 C      0.513786    -1.003807    -5.453704    11.544282
  57 C     -1.107348     2.218899    -5.094524    13.228286
  58 C     -1.522834     3.057009    -6.117155    12.722874
  59 C     -1.356850     2.707130    -7.462130    12.958686
  60 C     -0.760498     1.506354    -7.809577    12.807233
  61 C      0.750567    -1.501695    -7.811019    12.807912
  62 C      1.347379    -2.702596    -7.464673    12.951901
  63 C      1.515119    -3.052833    -6.120040    12.731721
  64 C      1.101027    -2.214972    -5.096621    13.224847
  65 H     -1.232156     2.501607    -4.056336     1.718925
  66 H     -1.984892     4.005010    -5.866549     1.669353
  67 H     -1.695098     3.386005    -8.235891     1.689189
  68 H     -0.623064     1.239208    -8.851435     1.673350
  69 H      0.611782    -1.234298    -8.852630     1.672456
  70 H      1.684631    -3.381235    -8.239048     1.689302
  71 H      1.977429    -4.000916    -5.870272     1.668222
  72 H      1.227153    -2.498071    -4.058721     1.718228
