   72
Nonperiodic system
N      -2.400053     0.345744    -0.441283    70.318872
C      -3.552360    -0.419819    -0.603392    75.993296
C      -4.542400     0.054945     0.276640    82.903778
C      -3.959747     1.161887     1.004661    82.687845
C      -2.641185     1.308934     0.535709    76.102740
C      -3.777786    -1.511987    -1.437470    89.105838
C      -5.026503    -2.110932    -1.386134    83.668468
C      -6.026759    -1.643433    -0.525882    86.042010
C      -5.789805    -0.564750     0.309841    84.863866
C      -4.443845     2.027254     1.983346    84.755392
C      -3.612589     3.021423     2.472007    86.004612
C      -2.307757     3.161750     1.985346    83.787477
C      -1.803104     2.314051     1.011990    88.770736
H      -3.006978    -1.885949    -2.100171     9.434181
H      -5.229571    -2.961555    -2.026631     8.384657
H      -6.992349    -2.134854    -0.513114     8.612150
H      -6.561049    -0.208150     0.983408     8.705424
H      -5.457958     1.924179     2.353055     8.730402
H      -3.973777     3.701160     3.234552     8.605301
H      -1.675946     3.951506     2.375250     8.401395
H      -0.795030     2.435755     0.634958     9.454791
C      -0.000838     0.000629    -0.447852    93.229624
C       1.188416    -0.170941    -1.148377    74.286973
C       1.192765    -0.171742    -2.539206    93.201592
C      -0.002204     0.001494    -3.229395    74.354214
C      -1.190805     0.172624    -1.147087    74.260890
C      -1.196478     0.174349    -2.537906    92.989188
H      -0.000261     0.000320     0.635002    10.153699
H       2.120463    -0.306390    -3.081335    10.202585
H      -2.124671     0.309283    -3.079021    10.213941
N       2.398348    -0.344715    -0.443871    70.232017
C       3.550813     0.420475    -0.607042    76.004104
C       4.541672    -0.055085     0.271633    82.946059
C       3.959630    -1.162493     0.999450    82.671690
C       2.640442    -1.308826     0.531929    76.136749
C       3.775544     1.513183    -1.440593    89.172060
C       5.024491     2.111838    -1.390151    83.635499
C       6.025495     1.643566    -0.531244    85.758386
C       5.789164     0.564409     0.304042    84.906935
C       4.444731    -2.028861     1.976695    84.816899
C       3.613852    -3.023272     2.465529    86.029577
C       2.308425    -3.162919     1.980308    83.644902
C       1.802784    -2.314242     1.008280    88.845103
H       3.004118     1.887875    -2.102163     9.449566
H       5.227056     2.962866    -2.030204     8.396384
H       6.991238     2.134682    -0.519073     8.635005
H       6.561116     0.207182     0.976533     8.708282
H       5.459275    -1.926294     2.345301     8.722295
H       3.975878    -3.703700     3.227076     8.607838
H       1.676862    -3.952872     2.370301     8.398197
H       0.794227    -2.435419     0.632398     9.455471
N      -0.002902     0.001876    -4.640211    70.268602
C      -0.520604     1.007783    -5.452740    76.118301
C      -0.334595     0.646119    -6.799866    82.753950
C       0.325973    -0.641742    -6.800513    82.891097
C       0.513786    -1.003807    -5.453704    76.148754
C      -1.107348     2.218899    -5.094524    88.823146
C      -1.522834     3.057009    -6.117155    83.810030
C      -1.356850     2.707130    -7.462130    86.083315
C      -0.760498     1.506354    -7.809577    84.610063
C       0.750567    -1.501695    -7.811019    84.633792
C       1.347379    -2.702596    -7.464673    85.998233
C       1.515119    -3.052833    -6.120040    83.921972
C       1.101027    -2.214972    -5.096621    88.785852
H      -1.232156     2.501607    -4.056336     9.487107
H      -1.984892     4.005010    -5.866549     8.381449
H      -1.695098     3.386005    -8.235891     8.608065
H      -0.623064     1.239208    -8.851435     8.749375
H       0.611782    -1.234298    -8.852630     8.742245
H       1.684631    -3.381235    -8.239048     8.613558
H       1.977429    -4.000916    -5.870272     8.369796
H       1.227153    -2.498071    -4.058721     9.484095
  
Same information as above printed with atom number.
   1 N     -2.400053     0.345744    -0.441283    70.318872
   2 C     -3.552360    -0.419819    -0.603392    75.993296
   3 C     -4.542400     0.054945     0.276640    82.903778
   4 C     -3.959747     1.161887     1.004661    82.687845
   5 C     -2.641185     1.308934     0.535709    76.102740
   6 C     -3.777786    -1.511987    -1.437470    89.105838
   7 C     -5.026503    -2.110932    -1.386134    83.668468
   8 C     -6.026759    -1.643433    -0.525882    86.042010
   9 C     -5.789805    -0.564750     0.309841    84.863866
  10 C     -4.443845     2.027254     1.983346    84.755392
  11 C     -3.612589     3.021423     2.472007    86.004612
  12 C     -2.307757     3.161750     1.985346    83.787477
  13 C     -1.803104     2.314051     1.011990    88.770736
  14 H     -3.006978    -1.885949    -2.100171     9.434181
  15 H     -5.229571    -2.961555    -2.026631     8.384657
  16 H     -6.992349    -2.134854    -0.513114     8.612150
  17 H     -6.561049    -0.208150     0.983408     8.705424
  18 H     -5.457958     1.924179     2.353055     8.730402
  19 H     -3.973777     3.701160     3.234552     8.605301
  20 H     -1.675946     3.951506     2.375250     8.401395
  21 H     -0.795030     2.435755     0.634958     9.454791
  22 C     -0.000838     0.000629    -0.447852    93.229624
  23 C      1.188416    -0.170941    -1.148377    74.286973
  24 C      1.192765    -0.171742    -2.539206    93.201592
  25 C     -0.002204     0.001494    -3.229395    74.354214
  26 C     -1.190805     0.172624    -1.147087    74.260890
  27 C     -1.196478     0.174349    -2.537906    92.989188
  28 H     -0.000261     0.000320     0.635002    10.153699
  29 H      2.120463    -0.306390    -3.081335    10.202585
  30 H     -2.124671     0.309283    -3.079021    10.213941
  31 N      2.398348    -0.344715    -0.443871    70.232017
  32 C      3.550813     0.420475    -0.607042    76.004104
  33 C      4.541672    -0.055085     0.271633    82.946059
  34 C      3.959630    -1.162493     0.999450    82.671690
  35 C      2.640442    -1.308826     0.531929    76.136749
  36 C      3.775544     1.513183    -1.440593    89.172060
  37 C      5.024491     2.111838    -1.390151    83.635499
  38 C      6.025495     1.643566    -0.531244    85.758386
  39 C      5.789164     0.564409     0.304042    84.906935
  40 C      4.444731    -2.028861     1.976695    84.816899
  41 C      3.613852    -3.023272     2.465529    86.029577
  42 C      2.308425    -3.162919     1.980308    83.644902
  43 C      1.802784    -2.314242     1.008280    88.845103
  44 H      3.004118     1.887875    -2.102163     9.449566
  45 H      5.227056     2.962866    -2.030204     8.396384
  46 H      6.991238     2.134682    -0.519073     8.635005
  47 H      6.561116     0.207182     0.976533     8.708282
  48 H      5.459275    -1.926294     2.345301     8.722295
  49 H      3.975878    -3.703700     3.227076     8.607838
  50 H      1.676862    -3.952872     2.370301     8.398197
  51 H      0.794227    -2.435419     0.632398     9.455471
  52 N     -0.002902     0.001876    -4.640211    70.268602
  53 C     -0.520604     1.007783    -5.452740    76.118301
  54 C     -0.334595     0.646119    -6.799866    82.753950
  55 C      0.325973    -0.641742    -6.800513    82.891097
  56 C      0.513786    -1.003807    -5.453704    76.148754
  57 C     -1.107348     2.218899    -5.094524    88.823146
  58 C     -1.522834     3.057009    -6.117155    83.810030
  59 C     -1.356850     2.707130    -7.462130    86.083315
  60 C     -0.760498     1.506354    -7.809577    84.610063
  61 C      0.750567    -1.501695    -7.811019    84.633792
  62 C      1.347379    -2.702596    -7.464673    85.998233
  63 C      1.515119    -3.052833    -6.120040    83.921972
  64 C      1.101027    -2.214972    -5.096621    88.785852
  65 H     -1.232156     2.501607    -4.056336     9.487107
  66 H     -1.984892     4.005010    -5.866549     8.381449
  67 H     -1.695098     3.386005    -8.235891     8.608065
  68 H     -0.623064     1.239208    -8.851435     8.749375
  69 H      0.611782    -1.234298    -8.852630     8.742245
  70 H      1.684631    -3.381235    -8.239048     8.613558
  71 H      1.977429    -4.000916    -5.870272     8.369796
  72 H      1.227153    -2.498071    -4.058721     9.484095
