   48
Nonperiodic system
C      12.548809    10.228216     9.189541    67.467746
C      13.070618    11.530559     9.048190    90.461086
C      12.281720    12.622738     9.316314    80.464173
C      10.950831    12.393934     9.759036    81.778658
C      10.518366    11.054867     9.857859    75.506777
N      11.311178    10.003170     9.571437    76.526333
C      10.058857    13.454335    10.124328    87.657020
C       8.802336    13.195924    10.551428    87.673539
C       8.315713    11.852064    10.654574    81.887407
C       9.155015    10.777598    10.292796    75.598941
C       6.998862    11.539233    11.087536    80.410268
C       6.616434    10.219851    11.092845    90.524057
C       7.526719     9.217042    10.700318    67.381090
N       8.756327     9.490455    10.324035    76.494245
H      14.089938    11.668741     8.703405     9.842394
H      10.407392    14.477572    10.061830    10.136163
H       8.143105    14.013576    10.814766    10.169401
H       5.619933     9.944877    11.422031     9.851869
C      12.831436    13.991916     9.133081    80.606805
C      12.258284    14.875823     8.216780    86.299823
C      12.798514    16.140031     8.024972    82.877700
C      13.916312    16.539205     8.748763    83.505317
C      14.493466    15.665889     9.661828    83.078354
C      13.955918    14.398810     9.850757    86.400598
H      11.390706    14.562398     7.646243     9.305226
H      12.347633    16.813929     7.305374     8.391840
H      14.336335    17.527397     8.600172     8.594490
H      15.364015    15.971322    10.231158     8.437080
H      14.401883    13.718852    10.568489     9.253628
C       6.041127    12.586140    11.531443    80.641998
C       4.821923    12.745451    10.873222    86.268497
C       3.908564    13.701140    11.300313    83.034503
C       4.201125    14.505305    12.394442    83.874509
C       5.411629    14.349620    13.060126    82.646631
C       6.326522    13.397947    12.630906    86.379637
H       4.597129    12.121980    10.014668     9.263392
H       2.967380    13.818452    10.775266     8.440004
H       3.488234    15.250255    12.728896     8.567314
H       5.643127    14.968717    13.919422     8.410285
H       7.267496    13.272006    13.155441     9.305940
C      13.410494     9.033196     8.886877    87.510643
H      14.297970     9.020656     9.526523     8.685555
H      12.836733     8.122976     9.053899     8.734195
H      13.754134     9.054491     7.848429     8.633273
C       7.109440     7.772097    10.713570    87.486949
H       7.943623     7.152599    10.388069     8.736655
H       6.804593     7.464077    11.718074     8.642267
H       6.258136     7.606616    10.046561     8.689521
  
Same information as above printed with atom number.
   1 C     12.548809    10.228216     9.189541    67.467746
   2 C     13.070618    11.530559     9.048190    90.461086
   3 C     12.281720    12.622738     9.316314    80.464173
   4 C     10.950831    12.393934     9.759036    81.778658
   5 C     10.518366    11.054867     9.857859    75.506777
   6 N     11.311178    10.003170     9.571437    76.526333
   7 C     10.058857    13.454335    10.124328    87.657020
   8 C      8.802336    13.195924    10.551428    87.673539
   9 C      8.315713    11.852064    10.654574    81.887407
  10 C      9.155015    10.777598    10.292796    75.598941
  11 C      6.998862    11.539233    11.087536    80.410268
  12 C      6.616434    10.219851    11.092845    90.524057
  13 C      7.526719     9.217042    10.700318    67.381090
  14 N      8.756327     9.490455    10.324035    76.494245
  15 H     14.089938    11.668741     8.703405     9.842394
  16 H     10.407392    14.477572    10.061830    10.136163
  17 H      8.143105    14.013576    10.814766    10.169401
  18 H      5.619933     9.944877    11.422031     9.851869
  19 C     12.831436    13.991916     9.133081    80.606805
  20 C     12.258284    14.875823     8.216780    86.299823
  21 C     12.798514    16.140031     8.024972    82.877700
  22 C     13.916312    16.539205     8.748763    83.505317
  23 C     14.493466    15.665889     9.661828    83.078354
  24 C     13.955918    14.398810     9.850757    86.400598
  25 H     11.390706    14.562398     7.646243     9.305226
  26 H     12.347633    16.813929     7.305374     8.391840
  27 H     14.336335    17.527397     8.600172     8.594490
  28 H     15.364015    15.971322    10.231158     8.437080
  29 H     14.401883    13.718852    10.568489     9.253628
  30 C      6.041127    12.586140    11.531443    80.641998
  31 C      4.821923    12.745451    10.873222    86.268497
  32 C      3.908564    13.701140    11.300313    83.034503
  33 C      4.201125    14.505305    12.394442    83.874509
  34 C      5.411629    14.349620    13.060126    82.646631
  35 C      6.326522    13.397947    12.630906    86.379637
  36 H      4.597129    12.121980    10.014668     9.263392
  37 H      2.967380    13.818452    10.775266     8.440004
  38 H      3.488234    15.250255    12.728896     8.567314
  39 H      5.643127    14.968717    13.919422     8.410285
  40 H      7.267496    13.272006    13.155441     9.305940
  41 C     13.410494     9.033196     8.886877    87.510643
  42 H     14.297970     9.020656     9.526523     8.685555
  43 H     12.836733     8.122976     9.053899     8.734195
  44 H     13.754134     9.054491     7.848429     8.633273
  45 C      7.109440     7.772097    10.713570    87.486949
  46 H      7.943623     7.152599    10.388069     8.736655
  47 H      6.804593     7.464077    11.718074     8.642267
  48 H      6.258136     7.606616    10.046561     8.689521
