   48
Nonperiodic system
C     12.548809    10.228216     9.189541     0.339522
C     13.070618    11.530559     9.048190    -0.269161
C     12.281720    12.622738     9.316314     0.071154
C     10.950831    12.393934     9.759036    -0.025252
C     10.518366    11.054867     9.857859     0.151611
N     11.311178    10.003170     9.571437    -0.357946
C     10.058857    13.454335    10.124328    -0.133818
C      8.802336    13.195924    10.551428    -0.135574
C      8.315713    11.852064    10.654574    -0.026540
C      9.155015    10.777598    10.292796     0.148995
C      6.998862    11.539233    11.087536     0.071659
C      6.616434    10.219851    11.092845    -0.270198
C      7.526719     9.217042    10.700318     0.341124
N      8.756327     9.490455    10.324035    -0.357611
H     14.089938    11.668741     8.703405     0.121448
H     10.407392    14.477572    10.061830     0.105402
H      8.143105    14.013576    10.814766     0.108545
H      5.619933     9.944877    11.422031     0.121463
C     12.831436    13.991916     9.133081     0.068163
C     12.258284    14.875823     8.216780    -0.138956
C     12.798514    16.140031     8.024972    -0.091156
C     13.916312    16.539205     8.748763    -0.097700
C     14.493466    15.665889     9.661828    -0.088367
C     13.955918    14.398810     9.850757    -0.142862
H     11.390706    14.562398     7.646243     0.109327
H     12.347633    16.813929     7.305374     0.102292
H     14.336335    17.527397     8.600172     0.100718
H     15.364015    15.971322    10.231158     0.101305
H     14.401883    13.718852    10.568489     0.106540
C      6.041127    12.586140    11.531443     0.068051
C      4.821923    12.745451    10.873222    -0.141602
C      3.908564    13.701140    11.300313    -0.088378
C      4.201125    14.505305    12.394442    -0.100547
C      5.411629    14.349620    13.060126    -0.088367
C      6.326522    13.397947    12.630906    -0.139910
H      4.597129    12.121980    10.014668     0.106343
H      2.967380    13.818452    10.775266     0.101439
H      3.488234    15.250255    12.728896     0.100944
H      5.643127    14.968717    13.919422     0.101629
H      7.267496    13.272006    13.155441     0.109675
C     13.410494     9.033196     8.886877    -0.432680
H     14.297970     9.020656     9.526523     0.126483
H     12.836733     8.122976     9.053899     0.146555
H     13.754134     9.054491     7.848429     0.127936
C      7.109440     7.772097    10.713570    -0.432422
H      7.943623     7.152599    10.388069     0.146965
H      6.804593     7.464077    11.718074     0.127138
H      6.258136     7.606616    10.046561     0.126622
 
 Chargemol version 3.5 September 26, 2017.
See ddec.sourceforge.net for latest version.
 
Computational parameters:
Number of radial integration shells =    100
Cutoff radius (pm) =    500
Error in the integrated total number of electrons before renormalization (e) =    1.4820E-09
Charge convergence tolerance =    1.0000E-05
Minimum radius for electron cloud penetration fitting (pm) =    200
Minimum decay exponent for electron density of buried atom tails =   1.7500
Maximum decay exponent for electron density of buried atom tails =  2.5000
Number of iterations to convergence =      7
 
The following XYZ coordinates are in angstroms. The atomic dipoles and quadrupoles are in atomic units.
atom number, atomic symbol, x, y, z, net_charge, dipole_x, dipole_y, dipole_z, dipole_mag, Qxy, Qxz, Qyz,Q(x^2-y^2), Q(3z^2 - R^2), three eigenvalues of traceless quadrupole moment tensor
    1 C     12.548809    10.228216     9.189541     0.339522     0.010481    -0.043572    -0.006103     0.045228    -0.040341     0.012609     0.010241    -0.009468     0.083716    -0.056720     0.027127     0.029593
    2 C     13.070618    11.530559     9.048190    -0.269161     0.008904     0.002475    -0.004299     0.010193    -0.006516    -0.020711     0.004521     0.038039    -0.061614    -0.029520    -0.009081     0.038601
    3 C     12.281720    12.622738     9.316314     0.071154     0.005621     0.018286    -0.002174     0.019253     0.010971     0.015439    -0.003972    -0.028300    -0.005730    -0.026220     0.006803     0.019416
    4 C     10.950831    12.393934     9.759036    -0.025252    -0.014528     0.031468     0.008321     0.035645    -0.015790    -0.024921     0.006027     0.018549    -0.101720    -0.044157     0.000342     0.043814
    5 C     10.518366    11.054867     9.857859     0.151611     0.031176    -0.046585    -0.010912     0.057107    -0.018455     0.002892     0.009162     0.023951     0.046612    -0.030945     0.013018     0.017927
    6 N     11.311178    10.003170     9.571437    -0.357946     0.036132     0.197011    -0.007479     0.200436    -0.117864     0.012034     0.027475     0.229873     0.330537    -0.220562     0.108876     0.111686
    7 C     10.058857    13.454335    10.124328    -0.133818     0.022269    -0.029209    -0.006040     0.037223     0.001023    -0.003294     0.008413    -0.071126    -0.110346    -0.039445    -0.015782     0.055227
    8 C      8.802336    13.195924    10.551428    -0.135574    -0.009869    -0.038313    -0.001667     0.039599    -0.018908    -0.005755     0.008773    -0.055919    -0.111690    -0.040049    -0.013914     0.053963
    9 C      8.315713    11.852064    10.654574    -0.026540     0.003539     0.034171    -0.001350     0.034381     0.022177    -0.017863    -0.002092    -0.011042    -0.103570    -0.042360    -0.000508     0.042868
   10 C      9.155015    10.777598    10.292796     0.148995    -0.014313    -0.054277     0.000560     0.056136     0.019508     0.011231    -0.012799    -0.008842     0.032104    -0.031262     0.012554     0.018708
   11 C      6.998862    11.539233    11.087536     0.071659    -0.010382     0.014520     0.005411     0.018652    -0.018831     0.009512     0.011399    -0.002837     0.004309    -0.026423     0.007458     0.018965
   12 C      6.616434    10.219851    11.092845    -0.270198    -0.009403    -0.000864     0.005249     0.010804     0.020645    -0.015196    -0.006637     0.017754    -0.067813    -0.028729    -0.010021     0.038750
   13 C      7.526719     9.217042    10.700318     0.341124     0.004215    -0.044297    -0.003570     0.044640     0.024836     0.023307    -0.008583    -0.057756     0.068027    -0.056226     0.027341     0.028885
   14 N      8.756327     9.490455    10.324035    -0.357611    -0.097005     0.170059     0.046389     0.201201     0.153470     0.059347    -0.062962     0.017263     0.266384    -0.220324     0.108689     0.111635
   15 H     14.089938    11.668741     8.703405     0.121448     0.040971     0.004127    -0.016187     0.044246     0.000644    -0.014879    -0.001426     0.018424    -0.048394    -0.021939    -0.001226     0.023165
   16 H     10.407392    14.477572    10.061830     0.105402     0.009635     0.052234     0.001602     0.053139    -0.008273    -0.004363     0.008717    -0.029902    -0.060753    -0.022435    -0.006707     0.029142
   17 H      8.143105    14.013576    10.814766     0.108545    -0.024793     0.043678     0.008534     0.050944    -0.002713    -0.002270     0.000872    -0.035398    -0.066018    -0.022419    -0.006594     0.029013
   18 H      5.619933     9.944877    11.422031     0.121463    -0.039456    -0.012903     0.015194     0.044206     0.008328    -0.014279     0.000076     0.013432    -0.047276    -0.021959    -0.001220     0.023179
   19 C     12.831436    13.991916     9.133081     0.068163    -0.006022    -0.006926     0.001336     0.009275     0.023263    -0.017239    -0.008480    -0.038896    -0.108520    -0.042797    -0.008568     0.051364
   20 C     12.258284    14.875823     8.216780    -0.138956     0.017476     0.015809     0.006531     0.024454     0.022078     0.044197     0.001606     0.046616    -0.013103    -0.044633    -0.017599     0.062232
   21 C     12.798514    16.140031     8.024972    -0.091156     0.012080    -0.024531     0.018156     0.032823    -0.010291     0.043345    -0.043619    -0.025377    -0.001911    -0.059739    -0.008828     0.068566
   22 C     13.916312    16.539205     8.748763    -0.097700    -0.012680    -0.029264     0.003412     0.032075     0.040983     0.016721    -0.023571    -0.068443    -0.102426    -0.062613    -0.010523     0.073136
   23 C     14.493466    15.665889     9.661828    -0.088367    -0.026666    -0.015266    -0.013165     0.033428     0.027267     0.055224    -0.002215     0.034477    -0.037238    -0.061081    -0.008712     0.069794
   24 C     13.955918    14.398810     9.850757    -0.142862    -0.001201     0.024642    -0.010895     0.026969    -0.013727     0.040192    -0.038120    -0.013730     0.019479    -0.049445    -0.015275     0.064720
   25 H     11.390706    14.562398     7.646243     0.109327    -0.042333    -0.012825    -0.029338     0.053078     0.006926     0.022605    -0.005086     0.003112    -0.007592    -0.025517     0.002302     0.023215
   26 H     12.347633    16.813929     7.305374     0.102292    -0.021521     0.031872    -0.034574     0.051714     0.005535     0.018473    -0.013052    -0.009230    -0.016642    -0.027565     0.009151     0.018414
   27 H     14.336335    17.527397     8.600172     0.100718     0.020038     0.047006    -0.006941     0.051568     0.011642     0.015249    -0.010990    -0.015349    -0.030307    -0.028294     0.008776     0.019518
   28 H     15.364015    15.971322    10.231158     0.101305     0.041826     0.014289     0.027435     0.052022     0.009691     0.019757    -0.008470    -0.002992    -0.020363    -0.027714     0.009227     0.018487
   29 H     14.401883    13.718852    10.568489     0.106540     0.022924    -0.028946     0.036319     0.051792     0.001305     0.018885    -0.014884    -0.000417    -0.000414    -0.024829     0.001312     0.023517
   30 C      6.041127    12.586140    11.531443     0.068051     0.007466    -0.004855    -0.003261     0.009484    -0.025924    -0.025075     0.014615    -0.000334    -0.088933    -0.040659    -0.010310     0.050969
   31 C      4.821923    12.745451    10.873222    -0.141602    -0.007366     0.021682     0.017116     0.028589     0.002300     0.028004     0.045893    -0.005367     0.075752    -0.049989    -0.015076     0.065066
   32 C      3.908564    13.701140    11.300313    -0.088378     0.029482    -0.006892     0.011557     0.032408    -0.019708     0.045916     0.016805     0.073113    -0.022114    -0.060440    -0.009065     0.069504
   33 C      4.201125    14.505305    12.394442    -0.100547     0.020397    -0.020899    -0.008249     0.030346    -0.052946    -0.005202     0.037000     0.008673    -0.062050    -0.061481    -0.012051     0.073533
   34 C      5.411629    14.349620    13.060126    -0.088367    -0.005157    -0.022269    -0.024597     0.033579    -0.003766     0.027549     0.055644    -0.006970     0.065277    -0.061126    -0.008967     0.070093
   35 C      6.326522    13.397947    12.630906    -0.139910    -0.022439     0.010296    -0.003452     0.024929    -0.010363     0.039993     0.008038     0.070914    -0.006192    -0.045120    -0.017343     0.062462
   36 H      4.597129    12.121980    10.014668     0.106343    -0.013273    -0.026891    -0.042474     0.051994    -0.002984     0.012778     0.018364     0.010209     0.021785    -0.024593     0.001023     0.023569
   37 H      2.967380    13.818452    10.775266     0.101439    -0.044683     0.005291    -0.025367     0.051653    -0.011169     0.013518     0.014708     0.016849    -0.006018    -0.027807     0.009148     0.018658
   38 H      3.488234    15.250255    12.728896     0.100944    -0.034068     0.035225     0.015679     0.051452    -0.015250     0.007234     0.017422     0.009772    -0.011072    -0.028241     0.008704     0.019537
   39 H      5.643127    14.968717    13.919422     0.101629     0.011440     0.029271     0.041444     0.052012    -0.009090     0.011123     0.018852     0.008405     0.004706    -0.027438     0.009104     0.018333
   40 H      7.267496    13.272006    13.155441     0.109675     0.044897    -0.004628     0.027426     0.052814    -0.007972     0.018342     0.011265     0.017159     0.002582    -0.025702     0.002302     0.023400
   41 C     13.410494     9.033196     8.886877    -0.432680    -0.033115     0.040022     0.011416     0.053186    -0.001476     0.002620     0.000155    -0.003899     0.007663    -0.004404     0.000730     0.003674
   42 H     14.297970     9.020656     9.526523     0.126483     0.018037     0.003486     0.018817     0.026298    -0.002197     0.011482     0.004281     0.007425    -0.004088    -0.012734    -0.000836     0.013570
   43 H     12.836733     8.122976     9.053899     0.146555    -0.023599    -0.019457     0.007007     0.031378     0.009799    -0.001753    -0.002910    -0.013211    -0.023064    -0.008362    -0.007953     0.016316
   44 H     13.754134     9.054491     7.848429     0.127936     0.003472     0.004712    -0.025788     0.026444    -0.004063    -0.006450    -0.002851    -0.006085     0.034084    -0.012892    -0.000692     0.013585
   45 C      7.109440     7.772097    10.713570    -0.432422     0.017351     0.049828    -0.000116     0.052763     0.000668     0.001407    -0.000386    -0.005876     0.008164    -0.004355     0.001255     0.003099
   46 H      7.943623     7.152599    10.388069     0.146965     0.028280    -0.008575    -0.009969     0.031188    -0.010948    -0.005031     0.004467     0.003086    -0.018585    -0.008321    -0.008028     0.016348
   47 H      6.804593     7.464077    11.718074     0.127138    -0.003950    -0.001941     0.026410     0.026774     0.002798    -0.006152    -0.002404    -0.010451     0.033561    -0.012871    -0.000757     0.013628
   48 H      6.258136     7.606616    10.046561     0.126622    -0.018694     0.001402    -0.018691     0.026472     0.001390     0.012614    -0.000240     0.003736    -0.006750    -0.012690    -0.000790     0.013480
 
The sperically averaged electron density of each atom fit to a function of the form exp(a - br) for r >=rmin_cloud_penetration
atom number,atomic symbol, x, y, z, a, b, Rsquared where a and b are in atomic units and Rsquared is the squared correlation coefficient
    1 C     12.548809    10.228216     9.189541     1.250377     2.327564     0.995825
    2 C     13.070618    11.530559     9.048190     1.220390     2.209075     0.999449
    3 C     12.281720    12.622738     9.316314     0.734234     2.133882     0.998912
    4 C     10.950831    12.393934     9.759036     1.742951     2.326901     0.998313
    5 C     10.518366    11.054867     9.857859     0.940505     2.212105     0.996441
    6 N     11.311178    10.003170     9.571437     0.487660     2.155266     0.998904
    7 C     10.058857    13.454335    10.124328     0.834428     2.158590     0.998518
    8 C      8.802336    13.195924    10.551428     0.828891     2.157768     0.998525
    9 C      8.315713    11.852064    10.654574     1.617383     2.302093     0.998405
   10 C      9.155015    10.777598    10.292796     0.908293     2.204952     0.996439
   11 C      6.998862    11.539233    11.087536     0.809757     2.149605     0.998983
   12 C      6.616434    10.219851    11.092845     1.217498     2.208146     0.999446
   13 C      7.526719     9.217042    10.700318     1.337620     2.345532     0.996257
   14 N      8.756327     9.490455    10.324035     0.488708     2.155846     0.998887
   15 H     14.089938    11.668741     8.703405    -0.373099     2.373169     0.999491
   16 H     10.407392    14.477572    10.061830    -0.696971     2.308995     0.999829
   17 H      8.143105    14.013576    10.814766    -0.669703     2.311514     0.999833
   18 H      5.619933     9.944877    11.422031    -0.373834     2.372697     0.999492
   19 C     12.831436    13.991916     9.133081     1.317713     2.234202     0.998262
   20 C     12.258284    14.875823     8.216780     2.123624     2.397878     0.997366
   21 C     12.798514    16.140031     8.024972     2.789437     2.588233     0.999609
   22 C     13.916312    16.539205     8.748763     3.554277     2.737648     0.998052
   23 C     14.493466    15.665889     9.661828     2.813874     2.590995     0.999555
   24 C     13.955918    14.398810     9.850757     2.299118     2.437047     0.997235
   25 H     11.390706    14.562398     7.646243    -0.573103     2.363898     0.999650
   26 H     12.347633    16.813929     7.305374     0.399752     2.647515     0.998799
   27 H     14.336335    17.527397     8.600172     1.267810     2.788261     0.997330
   28 H     15.364015    15.971322    10.231158     0.601057     2.683066     0.998164
   29 H     14.401883    13.718852    10.568489    -0.687006     2.362575     0.999693
   30 C      6.041127    12.586140    11.531443     1.351858     2.241070     0.998216
   31 C      4.821923    12.745451    10.873222     2.190513     2.417636     0.997811
   32 C      3.908564    13.701140    11.300313     2.786047     2.586534     0.999558
   33 C      4.201125    14.505305    12.394442     2.929293     2.603584     0.999185
   34 C      5.411629    14.349620    13.060126     2.738326     2.580431     0.999662
   35 C      6.326522    13.397947    12.630906     2.129671     2.398576     0.997342
   36 H      4.597129    12.121980    10.014668    -0.679956     2.364014     0.999696
   37 H      2.967380    13.818452    10.775266     0.622135     2.687723     0.998128
   38 H      3.488234    15.250255    12.728896     1.258774     2.790088     0.997545
   39 H      5.643127    14.968717    13.919422     0.433395     2.654157     0.998794
   40 H      7.267496    13.272006    13.155441    -0.565681     2.365319     0.999647
   41 C     13.410494     9.033196     8.886877     1.965313     2.419998     0.999569
   42 H     14.297970     9.020656     9.526523     0.411221     2.650320     0.998630
   43 H     12.836733     8.122976     9.053899     0.209465     2.605959     0.999476
   44 H     13.754134     9.054491     7.848429     0.453713     2.657972     0.998599
   45 C      7.109440     7.772097    10.713570     1.949938     2.417274     0.999566
   46 H      7.943623     7.152599    10.388069     0.195374     2.604917     0.999412
   47 H      6.804593     7.464077    11.718074     0.501339     2.672489     0.997941
   48 H      6.258136     7.606616    10.046561     0.380715     2.640257     0.998896
 
  
 Since the system is non-periodic, the total dipole and quadrupole moments were computed relative to the system center of mass.
 Multipole moments (in atomic units) using the net atomic charges:
 Partial_charge_dipole_x =   -0.1224   Partial_charge_dipole_y =    0.7280   Partial_charge_dipole_z =    0.0762     Partial_charge_dipole_magnitude =    0.7421
 Partial_charge_quadrupole_xy =    1.8870   Partial_charge_quadrupole_xz =   -2.4937   Partial_charge_quadrupole_yz =    0.2507   Partial_charge_quadrupole_x2minusy2 =    9.0497   Partial_charge_quadrupole_3z2minusr2 =  -21.8714
 Eigenvalues of traceless quadrupole moment tensor =   -7.7268  -1.1767   8.9035
 Multipole moments (in atomic units) using the net atomic charges and atomic dipoles:
 Dipole_x =   -0.1908   Dipole_y =    1.1267   Dipole_z =    0.1209   Dipole_magnitude =    1.1491
 Quadrupole_xy =    2.7602   Quadrupole_xz =   -2.3623   Quadrupole_yz =   -0.1204   Quadrupole_x2minusy2 =   14.4022   Quadrupole_3z2minusr2 =  -20.3488
 Eigenvalues of traceless quadrupole moment tensor =   -7.1193  -4.2865  11.4058
 Multipole moments (in atomic units) using the net atomic charges, atomic dipoles, and atomic quadrupoles:
 Dipole_x =   -0.1908   Dipole_y =    1.1267   Dipole_z =    0.1209   Dipole_magnitude =    1.1491
 Full_quadrupole_xy =    2.7379   Full_quadrupole_xz =   -1.8792   Full_quadrupole_yz =   -0.0313   Full_quadrupole_x2minusy2 =   14.5558   Full_quadrupole_3z2minusr2 =  -20.6164
 Eigenvalues of traceless quadrupole moment tensor =   -7.0939  -4.3063  11.4002
  
 2021/01/25  20:36:33
