   54
Nonperiodic system
N       0.049974    -0.000514     0.021309    12.510893
C      -1.362085     0.042360     0.003010    11.433172
C      -2.035776     0.971870    -0.791289    13.115594
C      -3.420169     1.014931    -0.798524    12.883542
C      -4.178461     0.125267    -0.034232    12.005212
C      -3.494239    -0.806829     0.749062    12.896903
C      -2.109982    -0.845397     0.778289    13.097630
H      -1.466698     1.658328    -1.407150     1.689583
H      -3.922913     1.730798    -1.439824     1.721818
H      -4.055037    -1.491858     1.375743     1.720925
H      -1.598653    -1.564375     1.407553     1.695187
C       0.794576     1.199820     0.028188    11.430692
C       1.957259     1.320265    -0.735057    13.130472
C       2.688155     2.496686    -0.718117    12.864640
C       2.278363     3.595634     0.040103    12.018324
C       1.109206     3.467026     0.793166    12.888410
C       0.381773     2.288415     0.798547    13.117952
H       2.282476     0.486352    -1.345905     1.690283
H       3.576320     2.575408    -1.335744     1.721914
H       0.781492     4.292640     1.415624     1.720216
H      -0.512043     2.203487     1.405368     1.689598
C       0.718077    -1.247847     0.030176    11.446597
C       1.831971    -1.447166     0.848029    13.147682
C       2.489290    -2.668960     0.845939    12.670276
C       2.036936    -3.713051     0.047703    12.880766
C       0.922087    -3.518916    -0.759329    12.656737
C       0.270585    -2.294198    -0.778730    13.136197
H       2.179695    -0.637862     1.479367     1.704264
H       3.354007    -2.808684     1.484933     1.671655
H       2.548121    -4.668467     0.054570     1.696514
H       0.562107    -4.322884    -1.391471     1.682183
H      -0.592064    -2.141404    -1.416688     1.707097
C      -5.660216     0.167926    -0.054431    11.946956
C      -6.341878     1.387649    -0.047232    12.998449
C      -6.409412    -1.011182    -0.081274    12.987883
C      -7.729374     1.427359    -0.067689    12.712549
H      -5.777760     2.313040    -0.002544     1.740407
C      -7.796964    -0.972426    -0.098598    12.713068
H      -5.897568    -1.967036    -0.111529     1.741020
C      -8.462692     0.247278    -0.092628    12.777950
H      -8.239779     2.383911    -0.054911     1.681923
H      -8.360082    -1.898600    -0.126033     1.682782
H      -9.546138     0.278049    -0.107355     1.695244
C       3.057559     4.856822     0.044844    11.934962
C       4.454017     4.835986     0.088040    13.009332
C       2.412984     6.095909     0.005770    13.001858
C       5.183442     6.017114     0.090613    12.704739
H       4.971186     3.884073     0.142671     1.738928
C       3.141527     7.277554     0.011465    12.708216
H       1.330450     6.131768    -0.052412     1.740410
C       4.530018     7.242945     0.053154    12.777924
H       6.266319     5.979759     0.131181     1.683505
H       2.622638     8.228871    -0.026074     1.683261
H       5.099372     8.165363     0.056351     1.694982
  
Same information as above printed with atom number.
   1 N      0.049974    -0.000514     0.021309    12.510893
   2 C     -1.362085     0.042360     0.003010    11.433172
   3 C     -2.035776     0.971870    -0.791289    13.115594
   4 C     -3.420169     1.014931    -0.798524    12.883542
   5 C     -4.178461     0.125267    -0.034232    12.005212
   6 C     -3.494239    -0.806829     0.749062    12.896903
   7 C     -2.109982    -0.845397     0.778289    13.097630
   8 H     -1.466698     1.658328    -1.407150     1.689583
   9 H     -3.922913     1.730798    -1.439824     1.721818
  10 H     -4.055037    -1.491858     1.375743     1.720925
  11 H     -1.598653    -1.564375     1.407553     1.695187
  12 C      0.794576     1.199820     0.028188    11.430692
  13 C      1.957259     1.320265    -0.735057    13.130472
  14 C      2.688155     2.496686    -0.718117    12.864640
  15 C      2.278363     3.595634     0.040103    12.018324
  16 C      1.109206     3.467026     0.793166    12.888410
  17 C      0.381773     2.288415     0.798547    13.117952
  18 H      2.282476     0.486352    -1.345905     1.690283
  19 H      3.576320     2.575408    -1.335744     1.721914
  20 H      0.781492     4.292640     1.415624     1.720216
  21 H     -0.512043     2.203487     1.405368     1.689598
  22 C      0.718077    -1.247847     0.030176    11.446597
  23 C      1.831971    -1.447166     0.848029    13.147682
  24 C      2.489290    -2.668960     0.845939    12.670276
  25 C      2.036936    -3.713051     0.047703    12.880766
  26 C      0.922087    -3.518916    -0.759329    12.656737
  27 C      0.270585    -2.294198    -0.778730    13.136197
  28 H      2.179695    -0.637862     1.479367     1.704264
  29 H      3.354007    -2.808684     1.484933     1.671655
  30 H      2.548121    -4.668467     0.054570     1.696514
  31 H      0.562107    -4.322884    -1.391471     1.682183
  32 H     -0.592064    -2.141404    -1.416688     1.707097
  33 C     -5.660216     0.167926    -0.054431    11.946956
  34 C     -6.341878     1.387649    -0.047232    12.998449
  35 C     -6.409412    -1.011182    -0.081274    12.987883
  36 C     -7.729374     1.427359    -0.067689    12.712549
  37 H     -5.777760     2.313040    -0.002544     1.740407
  38 C     -7.796964    -0.972426    -0.098598    12.713068
  39 H     -5.897568    -1.967036    -0.111529     1.741020
  40 C     -8.462692     0.247278    -0.092628    12.777950
  41 H     -8.239779     2.383911    -0.054911     1.681923
  42 H     -8.360082    -1.898600    -0.126033     1.682782
  43 H     -9.546138     0.278049    -0.107355     1.695244
  44 C      3.057559     4.856822     0.044844    11.934962
  45 C      4.454017     4.835986     0.088040    13.009332
  46 C      2.412984     6.095909     0.005770    13.001858
  47 C      5.183442     6.017114     0.090613    12.704739
  48 H      4.971186     3.884073     0.142671     1.738928
  49 C      3.141527     7.277554     0.011465    12.708216
  50 H      1.330450     6.131768    -0.052412     1.740410
  51 C      4.530018     7.242945     0.053154    12.777924
  52 H      6.266319     5.979759     0.131181     1.683505
  53 H      2.622638     8.228871    -0.026074     1.683261
  54 H      5.099372     8.165363     0.056351     1.694982
