   74
Nonperiodic system
C      27.536838    25.191101    24.187828    72.195319
C      28.062847    26.493279    24.061234    91.566932
C      27.272074    27.585475    24.330038    79.623552
C      25.940506    27.362874    24.768956    80.977497
C      25.511497    26.023476    24.876495    74.523203
N      26.297907    24.977435    24.583627    78.372859
C      25.045098    28.421734    25.131678    87.198243
C      23.789899    28.161516    25.563431    86.980314
C      23.308592    26.816523    25.681158    81.213355
C      24.153411    25.743417    25.328434    74.618668
C      21.993744    26.495033    26.108843    79.394437
C      21.619174    25.172320    26.132264    91.613522
C      22.542548    24.169493    25.771723    72.213417
N      23.768333    24.460003    25.384001    78.271696
H      29.088663    26.646519    23.750274    10.408498
H      25.389627    29.445805    25.061713    10.137423
H      23.128209    28.978888    25.821147    10.114486
H      20.611231    24.912860    26.431036    10.383554
C      28.352669    23.983489    23.892501    79.526022
C      30.238017    22.868820    22.832844    79.157376
C      29.827251    21.629754    23.388779    79.452088
C      28.657856    21.600794    24.192120    84.904248
C      27.940323    22.735353    24.432631    85.786486
C      29.476476    24.031776    23.104793    89.838805
C      31.398470    22.905704    22.018769    85.952929
C      32.117514    21.767812    21.774522    83.999509
C      31.710156    20.534993    22.331680    83.741715
C      30.592474    20.468722    23.118684    86.354991
H      28.338033    20.654361    24.615992     8.819583
H      27.040025    22.715469    25.033794     9.829951
H      29.796855    24.963375    22.650136     9.851246
H      31.708733    23.854208    21.592157     8.958023
H      33.003833    21.807291    21.151560     8.585843
H      32.288040    19.639961    22.130976     8.559917
H      30.276068    19.523029    23.546595     9.063080
C      27.830914    28.953013    24.162774    80.374700
C      27.271035    29.845327    23.246631    86.284184
C      27.818557    31.108666    23.070183    82.540726
C      28.929942    31.497539    23.809211    83.592810
C      29.493731    30.615206    24.722031    82.847461
C      28.949183    29.349016    24.895983    85.925306
H      26.409144    29.539386    22.663493     9.265613
H      27.378627    31.789629    22.350529     8.382934
H      29.355705    32.484948    23.672462     8.554170
H      30.359249    30.912785    25.302954     8.411484
H      29.384651    28.662038    25.613504     9.071301
C      21.018093    27.539731    26.517757    80.434384
C      19.810904    27.678279    25.833305    85.989430
C      18.882488    28.633391    26.227993    82.945644
C      19.148051    29.456783    27.314763    83.320378
C      20.346455    29.321242    28.006188    82.816558
C      21.276704    28.370206    27.609692    86.146334
H      19.607271    27.039667    24.980600     9.061896
H      17.950752    28.735024    25.683321     8.401081
H      18.423152    30.201121    27.623676     8.574518
H      20.556369    29.955303    28.860035     8.365389
H      22.207911    28.259256    28.154704     9.257218
C      22.182663    22.727019    25.796348    79.383122
C      20.812948    20.865624    26.556924    79.125846
C      21.585831    19.968197    25.775676    79.505591
C      22.666878    20.486996    25.016766    84.939965
C      22.961173    21.818624    25.029322    85.736124
C      21.137938    22.244261    26.545419    89.627776
C      19.738477    20.354971    27.328564    86.005783
C      19.443875    19.019087    27.318990    84.053020
C      20.211235    18.126558    26.537483    83.811733
C      21.256179    18.590590    25.785303    86.257336
H      23.263091    19.803369    24.421047     8.820106
H      23.793428    22.217056    24.462709     9.822328
H      20.547370    22.907764    27.168483     9.847391
H      19.150974    21.043138    27.927885     8.943441
H      18.619537    18.639307    27.911800     8.568519
H      19.968198    17.070035    26.537825     8.561641
H      21.848460    17.907319    25.185385     9.069571
  
Same information as above printed with atom number.
   1 C     27.536838    25.191101    24.187828    72.195319
   2 C     28.062847    26.493279    24.061234    91.566932
   3 C     27.272074    27.585475    24.330038    79.623552
   4 C     25.940506    27.362874    24.768956    80.977497
   5 C     25.511497    26.023476    24.876495    74.523203
   6 N     26.297907    24.977435    24.583627    78.372859
   7 C     25.045098    28.421734    25.131678    87.198243
   8 C     23.789899    28.161516    25.563431    86.980314
   9 C     23.308592    26.816523    25.681158    81.213355
  10 C     24.153411    25.743417    25.328434    74.618668
  11 C     21.993744    26.495033    26.108843    79.394437
  12 C     21.619174    25.172320    26.132264    91.613522
  13 C     22.542548    24.169493    25.771723    72.213417
  14 N     23.768333    24.460003    25.384001    78.271696
  15 H     29.088663    26.646519    23.750274    10.408498
  16 H     25.389627    29.445805    25.061713    10.137423
  17 H     23.128209    28.978888    25.821147    10.114486
  18 H     20.611231    24.912860    26.431036    10.383554
  19 C     28.352669    23.983489    23.892501    79.526022
  20 C     30.238017    22.868820    22.832844    79.157376
  21 C     29.827251    21.629754    23.388779    79.452088
  22 C     28.657856    21.600794    24.192120    84.904248
  23 C     27.940323    22.735353    24.432631    85.786486
  24 C     29.476476    24.031776    23.104793    89.838805
  25 C     31.398470    22.905704    22.018769    85.952929
  26 C     32.117514    21.767812    21.774522    83.999509
  27 C     31.710156    20.534993    22.331680    83.741715
  28 C     30.592474    20.468722    23.118684    86.354991
  29 H     28.338033    20.654361    24.615992     8.819583
  30 H     27.040025    22.715469    25.033794     9.829951
  31 H     29.796855    24.963375    22.650136     9.851246
  32 H     31.708733    23.854208    21.592157     8.958023
  33 H     33.003833    21.807291    21.151560     8.585843
  34 H     32.288040    19.639961    22.130976     8.559917
  35 H     30.276068    19.523029    23.546595     9.063080
  36 C     27.830914    28.953013    24.162774    80.374700
  37 C     27.271035    29.845327    23.246631    86.284184
  38 C     27.818557    31.108666    23.070183    82.540726
  39 C     28.929942    31.497539    23.809211    83.592810
  40 C     29.493731    30.615206    24.722031    82.847461
  41 C     28.949183    29.349016    24.895983    85.925306
  42 H     26.409144    29.539386    22.663493     9.265613
  43 H     27.378627    31.789629    22.350529     8.382934
  44 H     29.355705    32.484948    23.672462     8.554170
  45 H     30.359249    30.912785    25.302954     8.411484
  46 H     29.384651    28.662038    25.613504     9.071301
  47 C     21.018093    27.539731    26.517757    80.434384
  48 C     19.810904    27.678279    25.833305    85.989430
  49 C     18.882488    28.633391    26.227993    82.945644
  50 C     19.148051    29.456783    27.314763    83.320378
  51 C     20.346455    29.321242    28.006188    82.816558
  52 C     21.276704    28.370206    27.609692    86.146334
  53 H     19.607271    27.039667    24.980600     9.061896
  54 H     17.950752    28.735024    25.683321     8.401081
  55 H     18.423152    30.201121    27.623676     8.574518
  56 H     20.556369    29.955303    28.860035     8.365389
  57 H     22.207911    28.259256    28.154704     9.257218
  58 C     22.182663    22.727019    25.796348    79.383122
  59 C     20.812948    20.865624    26.556924    79.125846
  60 C     21.585831    19.968197    25.775676    79.505591
  61 C     22.666878    20.486996    25.016766    84.939965
  62 C     22.961173    21.818624    25.029322    85.736124
  63 C     21.137938    22.244261    26.545419    89.627776
  64 C     19.738477    20.354971    27.328564    86.005783
  65 C     19.443875    19.019087    27.318990    84.053020
  66 C     20.211235    18.126558    26.537483    83.811733
  67 C     21.256179    18.590590    25.785303    86.257336
  68 H     23.263091    19.803369    24.421047     8.820106
  69 H     23.793428    22.217056    24.462709     9.822328
  70 H     20.547370    22.907764    27.168483     9.847391
  71 H     19.150974    21.043138    27.927885     8.943441
  72 H     18.619537    18.639307    27.911800     8.568519
  73 H     19.968198    17.070035    26.537825     8.561641
  74 H     21.848460    17.907319    25.185385     9.069571
