   74
Nonperiodic system
C      27.536838    25.191101    24.187828    11.124949
C      28.062847    26.493279    24.061234    13.380117
C      27.272074    27.585475    24.330038    11.871712
C      25.940506    27.362874    24.768956    12.173842
C      25.511497    26.023476    24.876495    11.441075
N      26.297907    24.977435    24.583627    13.261156
C      25.045098    28.421734    25.131678    12.958080
C      23.789899    28.161516    25.563431    12.937260
C      23.308592    26.816523    25.681158    12.189927
C      24.153411    25.743417    25.328434    11.437164
C      21.993744    26.495033    26.108843    11.854687
C      21.619174    25.172320    26.132264    13.384353
C      22.542548    24.169493    25.771723    11.122387
N      23.768333    24.460003    25.384001    13.255060
H      29.088663    26.646519    23.750274     1.751949
H      25.389627    29.445805    25.061713     1.757612
H      23.128209    28.978888    25.821147     1.766710
H      20.611231    24.912860    26.431036     1.748882
C      28.352669    23.983489    23.892501    11.999046
C      30.238017    22.868820    22.832844    11.826616
C      29.827251    21.629754    23.388779    11.828488
C      28.657856    21.600794    24.192120    12.905458
C      27.940323    22.735353    24.432631    12.827681
C      29.476476    24.031776    23.104793    13.196349
C      31.398470    22.905704    22.018769    12.949780
C      32.117514    21.767812    21.774522    12.772655
C      31.710156    20.534993    22.331680    12.745864
C      30.592474    20.468722    23.118684    12.971546
H      28.338033    20.654361    24.615992     1.689955
H      27.040025    22.715469    25.033794     1.724782
H      29.796855    24.963375    22.650136     1.744333
H      31.708733    23.854208    21.592157     1.702804
H      33.003833    21.807291    21.151560     1.686170
H      32.288040    19.639961    22.130976     1.683763
H      30.276068    19.523029    23.546595     1.706221
C      27.830914    28.953013    24.162774    11.878211
C      27.271035    29.845327    23.246631    12.908031
C      27.818557    31.108666    23.070183    12.671771
C      28.929942    31.497539    23.809211    12.743941
C      29.493731    30.615206    24.722031    12.681198
C      28.949183    29.349016    24.895983    12.915265
H      26.409144    29.539386    22.663493     1.700579
H      27.378627    31.789629    22.350529     1.671499
H      29.355705    32.484948    23.672462     1.681193
H      30.359249    30.912785    25.302954     1.670839
H      29.384651    28.662038    25.613504     1.700043
C      21.018093    27.539731    26.517757    11.885478
C      19.810904    27.678279    25.833305    12.921226
C      18.882488    28.633391    26.227993    12.690502
C      19.148051    29.456783    27.314763    12.723715
C      20.346455    29.321242    28.006188    12.697918
C      21.276704    28.370206    27.609692    12.896897
H      19.607271    27.039667    24.980600     1.698916
H      17.950752    28.735024    25.683321     1.669387
H      18.423152    30.201121    27.623676     1.683392
H      20.556369    29.955303    28.860035     1.666548
H      22.207911    28.259256    28.154704     1.700891
C      22.182663    22.727019    25.796348    11.999280
C      20.812948    20.865624    26.556924    11.819413
C      21.585831    19.968197    25.775676    11.838623
C      22.666878    20.486996    25.016766    12.905631
C      22.961173    21.818624    25.029322    12.828618
C      21.137938    22.244261    26.545419    13.177644
C      19.738477    20.354971    27.328564    12.952902
C      19.443875    19.019087    27.318990    12.776982
C      20.211235    18.126558    26.537483    12.751834
C      21.256179    18.590590    25.785303    12.965003
H      23.263091    19.803369    24.421047     1.689646
H      23.793428    22.217056    24.462709     1.724675
H      20.547370    22.907764    27.168483     1.754602
H      19.150974    21.043138    27.927885     1.700704
H      18.619537    18.639307    27.911800     1.684616
H      19.968198    17.070035    26.537825     1.683820
H      21.848460    17.907319    25.185385     1.706750
  
Same information as above printed with atom number.
   1 C     27.536838    25.191101    24.187828    11.124949
   2 C     28.062847    26.493279    24.061234    13.380117
   3 C     27.272074    27.585475    24.330038    11.871712
   4 C     25.940506    27.362874    24.768956    12.173842
   5 C     25.511497    26.023476    24.876495    11.441075
   6 N     26.297907    24.977435    24.583627    13.261156
   7 C     25.045098    28.421734    25.131678    12.958080
   8 C     23.789899    28.161516    25.563431    12.937260
   9 C     23.308592    26.816523    25.681158    12.189927
  10 C     24.153411    25.743417    25.328434    11.437164
  11 C     21.993744    26.495033    26.108843    11.854687
  12 C     21.619174    25.172320    26.132264    13.384353
  13 C     22.542548    24.169493    25.771723    11.122387
  14 N     23.768333    24.460003    25.384001    13.255060
  15 H     29.088663    26.646519    23.750274     1.751949
  16 H     25.389627    29.445805    25.061713     1.757612
  17 H     23.128209    28.978888    25.821147     1.766710
  18 H     20.611231    24.912860    26.431036     1.748882
  19 C     28.352669    23.983489    23.892501    11.999046
  20 C     30.238017    22.868820    22.832844    11.826616
  21 C     29.827251    21.629754    23.388779    11.828488
  22 C     28.657856    21.600794    24.192120    12.905458
  23 C     27.940323    22.735353    24.432631    12.827681
  24 C     29.476476    24.031776    23.104793    13.196349
  25 C     31.398470    22.905704    22.018769    12.949780
  26 C     32.117514    21.767812    21.774522    12.772655
  27 C     31.710156    20.534993    22.331680    12.745864
  28 C     30.592474    20.468722    23.118684    12.971546
  29 H     28.338033    20.654361    24.615992     1.689955
  30 H     27.040025    22.715469    25.033794     1.724782
  31 H     29.796855    24.963375    22.650136     1.744333
  32 H     31.708733    23.854208    21.592157     1.702804
  33 H     33.003833    21.807291    21.151560     1.686170
  34 H     32.288040    19.639961    22.130976     1.683763
  35 H     30.276068    19.523029    23.546595     1.706221
  36 C     27.830914    28.953013    24.162774    11.878211
  37 C     27.271035    29.845327    23.246631    12.908031
  38 C     27.818557    31.108666    23.070183    12.671771
  39 C     28.929942    31.497539    23.809211    12.743941
  40 C     29.493731    30.615206    24.722031    12.681198
  41 C     28.949183    29.349016    24.895983    12.915265
  42 H     26.409144    29.539386    22.663493     1.700579
  43 H     27.378627    31.789629    22.350529     1.671499
  44 H     29.355705    32.484948    23.672462     1.681193
  45 H     30.359249    30.912785    25.302954     1.670839
  46 H     29.384651    28.662038    25.613504     1.700043
  47 C     21.018093    27.539731    26.517757    11.885478
  48 C     19.810904    27.678279    25.833305    12.921226
  49 C     18.882488    28.633391    26.227993    12.690502
  50 C     19.148051    29.456783    27.314763    12.723715
  51 C     20.346455    29.321242    28.006188    12.697918
  52 C     21.276704    28.370206    27.609692    12.896897
  53 H     19.607271    27.039667    24.980600     1.698916
  54 H     17.950752    28.735024    25.683321     1.669387
  55 H     18.423152    30.201121    27.623676     1.683392
  56 H     20.556369    29.955303    28.860035     1.666548
  57 H     22.207911    28.259256    28.154704     1.700891
  58 C     22.182663    22.727019    25.796348    11.999280
  59 C     20.812948    20.865624    26.556924    11.819413
  60 C     21.585831    19.968197    25.775676    11.838623
  61 C     22.666878    20.486996    25.016766    12.905631
  62 C     22.961173    21.818624    25.029322    12.828618
  63 C     21.137938    22.244261    26.545419    13.177644
  64 C     19.738477    20.354971    27.328564    12.952902
  65 C     19.443875    19.019087    27.318990    12.776982
  66 C     20.211235    18.126558    26.537483    12.751834
  67 C     21.256179    18.590590    25.785303    12.965003
  68 H     23.263091    19.803369    24.421047     1.689646
  69 H     23.793428    22.217056    24.462709     1.724675
  70 H     20.547370    22.907764    27.168483     1.754602
  71 H     19.150974    21.043138    27.927885     1.700704
  72 H     18.619537    18.639307    27.911800     1.684616
  73 H     19.968198    17.070035    26.537825     1.683820
  74 H     21.848460    17.907319    25.185385     1.706750
