   64
Nonperiodic system
N       0.001185     0.000109     0.000884    27.470540
C      -1.410495     0.063715    -0.000677    26.697994
C      -2.079289     1.001973    -0.788551    30.995101
C      -3.462905     1.065681    -0.779434    30.246856
C      -4.225109     0.188732    -0.004449    28.184759
C      -3.545690    -0.751943     0.772815    30.307813
C      -2.161933    -0.811165     0.785605    30.922465
H      -1.507229     1.678796    -1.412274     3.533984
H      -3.962592     1.787894    -1.415966     3.583021
H      -4.109246    -1.427024     1.407745     3.578975
H      -1.653723    -1.536030     1.410660     3.538945
C       0.762176     1.190692    -0.000201    26.680497
C       1.911049     1.299831    -0.785481    30.943144
C       2.657733     2.466416    -0.776496    30.283568
C       2.277268     3.566207    -0.004327    28.224125
C       1.121265     3.448943     0.770611    30.267783
C       0.378425     2.280014     0.783707    30.997042
H       2.212778     0.465184    -1.407328     3.540838
H       3.534530     2.537158    -1.411077     3.577818
H       0.816664     4.275419     1.403547     3.570037
H      -0.504741     2.203243     1.407007     3.536326
C       0.651473    -1.254492    -0.000850    26.678344
C       1.784142    -1.468991     0.786145    30.906711
C       2.424063    -2.697325     0.772756    30.237557
C       1.949065    -3.755147    -0.005744    28.204361
C       0.808958    -3.532487    -0.781131    30.263365
C       0.173015    -2.302010    -0.789639    30.988314
H       2.157695    -0.667185     1.412184     3.550552
H       3.289892    -2.848802     1.408231     3.582993
H       0.433257    -4.325762    -1.418322     3.575955
H      -0.698836    -2.143905    -1.413560     3.535858
C      -5.706204     0.253146    -0.007387    28.078519
C      -6.369858     1.482673     0.005941    30.671204
C      -6.472685    -0.914971    -0.023792    30.679130
C      -7.756778     1.542536     0.001603    29.732562
H      -5.791900     2.399841     0.042676     3.657881
C      -7.859608    -0.856034    -0.025088    29.718474
H      -5.975205    -1.878226    -0.058608     3.659588
C      -8.507401     0.373235    -0.013125    29.939938
H      -8.253004     2.506439     0.018929     3.406893
H      -8.436429    -1.773928    -0.044663     3.407331
H      -9.590377     0.419750    -0.015314     3.446595
C       3.072985     4.817054    -0.007857    28.094639
C       4.469583     4.777777     0.009072    30.610837
C       2.443966     6.064537    -0.028556    30.714848
C       5.214334     5.949304     0.004063    29.763035
H       4.975211     3.818964     0.049189     3.666421
C       3.187908     7.236539    -0.030527    29.687503
H       1.361100     6.114761    -0.066240     3.658634
C       4.576364     7.183648    -0.014957    29.892664
H       6.297188     5.897691     0.024209     3.405527
H       2.680957     8.194722    -0.053508     3.414386
H       5.157667     8.098577    -0.017686     3.455474
C       2.633243    -5.070347    -0.009476    28.062713
C       1.899694    -6.259509     0.002313    30.768764
C       4.028091    -5.150724    -0.025217    30.629930
C       2.540756    -7.490847    -0.002870    29.672120
H       0.816423    -6.217063     0.038523     3.650122
C       4.669956    -6.381606    -0.027341    29.733288
H       4.614079    -4.238564    -0.058845     3.665895
C       3.928698    -7.556881    -0.016912    29.893456
H       1.953670    -8.402284     0.013220     3.415042
H       5.753274    -6.422685    -0.046390     3.409342
H       4.429454    -8.518262    -0.019770     3.452623
  
Same information as above printed with atom number.
   1 N      0.001185     0.000109     0.000884    27.470540
   2 C     -1.410495     0.063715    -0.000677    26.697994
   3 C     -2.079289     1.001973    -0.788551    30.995101
   4 C     -3.462905     1.065681    -0.779434    30.246856
   5 C     -4.225109     0.188732    -0.004449    28.184759
   6 C     -3.545690    -0.751943     0.772815    30.307813
   7 C     -2.161933    -0.811165     0.785605    30.922465
   8 H     -1.507229     1.678796    -1.412274     3.533984
   9 H     -3.962592     1.787894    -1.415966     3.583021
  10 H     -4.109246    -1.427024     1.407745     3.578975
  11 H     -1.653723    -1.536030     1.410660     3.538945
  12 C      0.762176     1.190692    -0.000201    26.680497
  13 C      1.911049     1.299831    -0.785481    30.943144
  14 C      2.657733     2.466416    -0.776496    30.283568
  15 C      2.277268     3.566207    -0.004327    28.224125
  16 C      1.121265     3.448943     0.770611    30.267783
  17 C      0.378425     2.280014     0.783707    30.997042
  18 H      2.212778     0.465184    -1.407328     3.540838
  19 H      3.534530     2.537158    -1.411077     3.577818
  20 H      0.816664     4.275419     1.403547     3.570037
  21 H     -0.504741     2.203243     1.407007     3.536326
  22 C      0.651473    -1.254492    -0.000850    26.678344
  23 C      1.784142    -1.468991     0.786145    30.906711
  24 C      2.424063    -2.697325     0.772756    30.237557
  25 C      1.949065    -3.755147    -0.005744    28.204361
  26 C      0.808958    -3.532487    -0.781131    30.263365
  27 C      0.173015    -2.302010    -0.789639    30.988314
  28 H      2.157695    -0.667185     1.412184     3.550552
  29 H      3.289892    -2.848802     1.408231     3.582993
  30 H      0.433257    -4.325762    -1.418322     3.575955
  31 H     -0.698836    -2.143905    -1.413560     3.535858
  32 C     -5.706204     0.253146    -0.007387    28.078519
  33 C     -6.369858     1.482673     0.005941    30.671204
  34 C     -6.472685    -0.914971    -0.023792    30.679130
  35 C     -7.756778     1.542536     0.001603    29.732562
  36 H     -5.791900     2.399841     0.042676     3.657881
  37 C     -7.859608    -0.856034    -0.025088    29.718474
  38 H     -5.975205    -1.878226    -0.058608     3.659588
  39 C     -8.507401     0.373235    -0.013125    29.939938
  40 H     -8.253004     2.506439     0.018929     3.406893
  41 H     -8.436429    -1.773928    -0.044663     3.407331
  42 H     -9.590377     0.419750    -0.015314     3.446595
  43 C      3.072985     4.817054    -0.007857    28.094639
  44 C      4.469583     4.777777     0.009072    30.610837
  45 C      2.443966     6.064537    -0.028556    30.714848
  46 C      5.214334     5.949304     0.004063    29.763035
  47 H      4.975211     3.818964     0.049189     3.666421
  48 C      3.187908     7.236539    -0.030527    29.687503
  49 H      1.361100     6.114761    -0.066240     3.658634
  50 C      4.576364     7.183648    -0.014957    29.892664
  51 H      6.297188     5.897691     0.024209     3.405527
  52 H      2.680957     8.194722    -0.053508     3.414386
  53 H      5.157667     8.098577    -0.017686     3.455474
  54 C      2.633243    -5.070347    -0.009476    28.062713
  55 C      1.899694    -6.259509     0.002313    30.768764
  56 C      4.028091    -5.150724    -0.025217    30.629930
  57 C      2.540756    -7.490847    -0.002870    29.672120
  58 H      0.816423    -6.217063     0.038523     3.650122
  59 C      4.669956    -6.381606    -0.027341    29.733288
  60 H      4.614079    -4.238564    -0.058845     3.665895
  61 C      3.928698    -7.556881    -0.016912    29.893456
  62 H      1.953670    -8.402284     0.013220     3.415042
  63 H      5.753274    -6.422685    -0.046390     3.409342
  64 H      4.429454    -8.518262    -0.019770     3.452623
