   64
Nonperiodic system
N       0.001185     0.000109     0.000884    76.331367
C      -1.410495     0.063715    -0.000677    76.416400
C      -2.079289     1.001973    -0.788551    88.416501
C      -3.462905     1.065681    -0.779434    85.651833
C      -4.225109     0.188732    -0.004449    80.951179
C      -3.545690    -0.751943     0.772815    85.857258
C      -2.161933    -0.811165     0.785605    88.163455
H      -1.507229     1.678796    -1.412274     9.231710
H      -3.962592     1.787894    -1.415966     9.226934
H      -4.109246    -1.427024     1.407745     9.219987
H      -1.653723    -1.536030     1.410660     9.245085
C       0.762176     1.190692    -0.000201    76.333181
C       1.911049     1.299831    -0.785481    88.221749
C       2.657733     2.466416    -0.776496    85.803576
C       2.277268     3.566207    -0.004327    81.055949
C       1.121265     3.448943     0.770611    85.713775
C       0.378425     2.280014     0.783707    88.419135
H       2.212778     0.465184    -1.407328     9.253067
H       3.534530     2.537158    -1.411077     9.203988
H       0.816664     4.275419     1.403547     9.217683
H      -0.504741     2.203243     1.407007     9.239115
C       0.651473    -1.254492    -0.000850    76.340754
C       1.784142    -1.468991     0.786145    88.129159
C       2.424063    -2.697325     0.772756    85.625851
C       1.949065    -3.755147    -0.005744    81.015968
C       0.808958    -3.532487    -0.781131    85.715249
C       0.173015    -2.302010    -0.789639    88.402410
H       2.157695    -0.667185     1.412184     9.242356
H       3.289892    -2.848802     1.408231     9.218417
H       0.433257    -4.325762    -1.418322     9.205208
H      -0.698836    -2.143905    -1.413560     9.238409
C      -5.706204     0.253146    -0.007387    80.932736
C      -6.369858     1.482673     0.005941    87.420706
C      -6.472685    -0.914971    -0.023792    87.450017
C      -7.756778     1.542536     0.001603    83.377834
H      -5.791900     2.399841     0.042676     9.530721
C      -7.859608    -0.856034    -0.025088    83.317251
H      -5.975205    -1.878226    -0.058608     9.535328
C      -8.507401     0.373235    -0.013125    84.253192
H      -8.253004     2.506439     0.018929     8.496098
H      -8.436429    -1.773928    -0.044663     8.498514
H      -9.590377     0.419750    -0.015314     8.642382
C       3.072985     4.817054    -0.007857    80.868893
C       4.469583     4.777777     0.009072    87.211090
C       2.443966     6.064537    -0.028556    87.618531
C       5.214334     5.949304     0.004063    83.500753
H       4.975211     3.818964     0.049189     9.556978
C       3.187908     7.236539    -0.030527    83.218718
H       1.361100     6.114761    -0.066240     9.532121
C       4.576364     7.183648    -0.014957    84.065385
H       6.297188     5.897691     0.024209     8.493806
H       2.680957     8.194722    -0.053508     8.519084
H       5.157667     8.098577    -0.017686     8.670891
C       2.633243    -5.070347    -0.009476    80.845665
C       1.899694    -6.259509     0.002313    87.836453
C       4.028091    -5.150724    -0.025217    87.280660
C       2.540756    -7.490847    -0.002870    83.158275
H       0.816423    -6.217063     0.038523     9.502578
C       4.669956    -6.381606    -0.027341    83.358893
H       4.614079    -4.238564    -0.058845     9.555880
C       3.928698    -7.556881    -0.016912    83.978232
H       1.953670    -8.402284     0.013220     8.522660
H       5.753274    -6.422685    -0.046390     8.507494
H       4.429454    -8.518262    -0.019770     8.667132
  
Same information as above printed with atom number.
   1 N      0.001185     0.000109     0.000884    76.331367
   2 C     -1.410495     0.063715    -0.000677    76.416400
   3 C     -2.079289     1.001973    -0.788551    88.416501
   4 C     -3.462905     1.065681    -0.779434    85.651833
   5 C     -4.225109     0.188732    -0.004449    80.951179
   6 C     -3.545690    -0.751943     0.772815    85.857258
   7 C     -2.161933    -0.811165     0.785605    88.163455
   8 H     -1.507229     1.678796    -1.412274     9.231710
   9 H     -3.962592     1.787894    -1.415966     9.226934
  10 H     -4.109246    -1.427024     1.407745     9.219987
  11 H     -1.653723    -1.536030     1.410660     9.245085
  12 C      0.762176     1.190692    -0.000201    76.333181
  13 C      1.911049     1.299831    -0.785481    88.221749
  14 C      2.657733     2.466416    -0.776496    85.803576
  15 C      2.277268     3.566207    -0.004327    81.055949
  16 C      1.121265     3.448943     0.770611    85.713775
  17 C      0.378425     2.280014     0.783707    88.419135
  18 H      2.212778     0.465184    -1.407328     9.253067
  19 H      3.534530     2.537158    -1.411077     9.203988
  20 H      0.816664     4.275419     1.403547     9.217683
  21 H     -0.504741     2.203243     1.407007     9.239115
  22 C      0.651473    -1.254492    -0.000850    76.340754
  23 C      1.784142    -1.468991     0.786145    88.129159
  24 C      2.424063    -2.697325     0.772756    85.625851
  25 C      1.949065    -3.755147    -0.005744    81.015968
  26 C      0.808958    -3.532487    -0.781131    85.715249
  27 C      0.173015    -2.302010    -0.789639    88.402410
  28 H      2.157695    -0.667185     1.412184     9.242356
  29 H      3.289892    -2.848802     1.408231     9.218417
  30 H      0.433257    -4.325762    -1.418322     9.205208
  31 H     -0.698836    -2.143905    -1.413560     9.238409
  32 C     -5.706204     0.253146    -0.007387    80.932736
  33 C     -6.369858     1.482673     0.005941    87.420706
  34 C     -6.472685    -0.914971    -0.023792    87.450017
  35 C     -7.756778     1.542536     0.001603    83.377834
  36 H     -5.791900     2.399841     0.042676     9.530721
  37 C     -7.859608    -0.856034    -0.025088    83.317251
  38 H     -5.975205    -1.878226    -0.058608     9.535328
  39 C     -8.507401     0.373235    -0.013125    84.253192
  40 H     -8.253004     2.506439     0.018929     8.496098
  41 H     -8.436429    -1.773928    -0.044663     8.498514
  42 H     -9.590377     0.419750    -0.015314     8.642382
  43 C      3.072985     4.817054    -0.007857    80.868893
  44 C      4.469583     4.777777     0.009072    87.211090
  45 C      2.443966     6.064537    -0.028556    87.618531
  46 C      5.214334     5.949304     0.004063    83.500753
  47 H      4.975211     3.818964     0.049189     9.556978
  48 C      3.187908     7.236539    -0.030527    83.218718
  49 H      1.361100     6.114761    -0.066240     9.532121
  50 C      4.576364     7.183648    -0.014957    84.065385
  51 H      6.297188     5.897691     0.024209     8.493806
  52 H      2.680957     8.194722    -0.053508     8.519084
  53 H      5.157667     8.098577    -0.017686     8.670891
  54 C      2.633243    -5.070347    -0.009476    80.845665
  55 C      1.899694    -6.259509     0.002313    87.836453
  56 C      4.028091    -5.150724    -0.025217    87.280660
  57 C      2.540756    -7.490847    -0.002870    83.158275
  58 H      0.816423    -6.217063     0.038523     9.502578
  59 C      4.669956    -6.381606    -0.027341    83.358893
  60 H      4.614079    -4.238564    -0.058845     9.555880
  61 C      3.928698    -7.556881    -0.016912    83.978232
  62 H      1.953670    -8.402284     0.013220     8.522660
  63 H      5.753274    -6.422685    -0.046390     8.507494
  64 H      4.429454    -8.518262    -0.019770     8.667132
