   94
Nonperiodic system
N     -0.002770    -0.005173     0.003765    -0.222072
C     -1.412212    -0.107543     0.007375     0.194766
C     -2.187129     0.753781    -0.772055    -0.178247
C     -3.569393     0.667797    -0.750269    -0.149057
C     -4.200952    -0.307948     0.015835     0.179013
C     -3.431690    -1.183353     0.777282    -0.151363
C     -2.051190    -1.070869     0.790678    -0.174718
H     -1.700932     1.505939    -1.381762     0.122350
H     -4.168906     1.352846    -1.338264     0.124351
H     -3.923628    -1.946628     1.368766     0.125218
H     -1.458791    -1.745308     1.397353     0.121842
C      0.613320     1.266966     0.003928     0.191659
C      1.734648     1.511124    -0.791419    -0.175452
C      2.350445     2.751756    -0.774279    -0.149727
C      1.831686     3.783051     0.003678     0.179516
C      0.701121     3.550532     0.781986    -0.151124
C      0.109691     2.298118     0.799361    -0.175755
H      2.134048     0.716586    -1.410345     0.123279
H      3.234197     2.931783    -1.375110     0.123679
H      0.294368     4.355557     1.382740     0.124612
H     -0.761385     2.118777     1.418206     0.122885
C      0.791805    -1.173975    -0.001998     0.196060
C      1.944468    -1.250432     0.782346    -0.177564
C      2.735442    -2.387243     0.758684    -0.150757
C      2.366219    -3.484291    -0.014661     0.179722
C      1.205870    -3.421056    -0.781139    -0.151257
C      0.436904    -2.268997    -0.792336    -0.175743
H      2.229252    -0.405199     1.397461     0.122521
H      3.641956    -2.434818     1.350638     0.124397
H      0.915825    -4.277637    -1.378297     0.124287
H     -0.456991    -2.220312    -1.402647     0.122173
N     -5.611756    -0.408474     0.021310    -0.160549
C     -6.427881    -0.314496     1.142854     0.152815
C     -7.771063    -0.462070     0.746906    -0.035031
C     -7.763383    -0.653663    -0.687384    -0.036433
C     -6.415824    -0.614411    -1.093910     0.155987
C     -8.782522    -0.393601     1.702872    -0.113073
C     -8.441890    -0.177024     3.027788    -0.129878
C     -7.101858    -0.021957     3.402695    -0.081853
C     -6.077768    -0.085799     2.471374    -0.200612
C     -8.763144    -0.861093    -1.635573    -0.109791
C     -8.406250    -1.028390    -2.963362    -0.133461
C     -7.060614    -0.996904    -3.348817    -0.076040
C     -6.047894    -0.792454    -2.425367    -0.206175
H     -9.820967    -0.505483     1.411269     0.107033
H     -9.217195    -0.122302     3.782802     0.100467
H     -6.857974     0.154779     4.444147     0.099945
H     -5.043323     0.043390     2.765779     0.109659
H     -9.804796    -0.893535    -1.335850     0.106696
H     -9.172483    -1.189281    -3.712452     0.100202
H     -6.802831    -1.138038    -4.392353     0.098422
H     -5.007849    -0.777483    -2.727931     0.111343
N      2.447785     5.056181     0.003000    -0.158487
C      2.953100     5.714560     1.118332     0.153288
C      3.485648     6.954718     0.717110    -0.034727
C      3.291655     7.047590    -0.713868    -0.031982
C      2.649670     5.859814    -1.113345     0.154573
C      4.063187     7.795831     1.666075    -0.113870
C      4.103679     7.388809     2.989325    -0.128089
C      3.578746     6.147708     3.369389    -0.081886
C      2.999389     5.293251     2.445052    -0.206080
C      3.592021     8.021462    -1.664104    -0.114970
C      3.246925     7.799107    -2.986906    -0.129592
C      2.599468     6.616762    -3.365217    -0.079096
C      2.289764     5.633136    -2.439608    -0.206184
H      4.476981     8.753566     1.370359     0.107029
H      4.548504     8.032438     3.739003     0.099731
H      3.628004     5.845354     4.409335     0.100330
H      2.602419     4.330431     2.743161     0.112136
H      4.086260     8.940697    -1.369748     0.107442
H      3.474857     8.546574    -3.737559     0.099547
H      2.331164     6.466553    -4.404829     0.099410
H      1.781126     4.723913    -2.736381     0.111706
N      3.163419    -4.652567    -0.022605    -0.155222
C      3.747679    -5.228860    -1.144905     0.151966
C      4.463399    -6.376004    -0.751870    -0.032892
C      4.302630    -6.496165     0.681106    -0.037475
C      3.496030    -5.416948     1.090103     0.151631
C      5.148126    -7.122432    -1.708704    -0.113286
C      5.111943    -6.714541    -3.031800    -0.129207
C      4.404023    -5.565335    -3.403845    -0.078653
C      3.715177    -4.805992    -2.471567    -0.204756
C      4.756146    -7.414301     1.626054    -0.109434
C      4.398078    -7.245524     2.953299    -0.129767
C      3.586570    -6.172574     3.341281    -0.079897
C      3.122695    -5.246179     2.421021    -0.204198
H      5.703132    -8.007905    -1.419186     0.106871
H      5.638503    -7.285193    -3.787586     0.099949
H      4.395409    -5.259397    -4.443879     0.098943
H      3.176187    -3.913017    -2.763988     0.110332
H      5.377927    -8.249885     1.324200     0.105903
H      4.743933    -7.950572     3.699909     0.099366
H      3.311545    -6.063689     4.384273     0.099709
H      2.488062    -4.422917     2.725816     0.110721
 
 Chargemol version 3.5 September 26, 2017.
See ddec.sourceforge.net for latest version.
 
Computational parameters:
Number of radial integration shells =    100
Cutoff radius (pm) =    500
Error in the integrated total number of electrons before renormalization (e) =    4.8457E-09
Charge convergence tolerance =    1.0000E-05
Minimum radius for electron cloud penetration fitting (pm) =    200
Minimum decay exponent for electron density of buried atom tails =   1.7500
Maximum decay exponent for electron density of buried atom tails =  2.5000
Number of iterations to convergence =      7
 
The following XYZ coordinates are in angstroms. The atomic dipoles and quadrupoles are in atomic units.
atom number, atomic symbol, x, y, z, net_charge, dipole_x, dipole_y, dipole_z, dipole_mag, Qxy, Qxz, Qyz,Q(x^2-y^2), Q(3z^2 - R^2), three eigenvalues of traceless quadrupole moment tensor
    1 N     -0.002770    -0.005173     0.003765    -0.222072     0.000458     0.001313    -0.000518     0.001484     0.000026    -0.000505     0.000123    -0.002186    -0.420016    -0.137922     0.067868     0.070054
    2 C     -1.412212    -0.107543     0.007375     0.194766     0.058345     0.004737    -0.001428     0.058554     0.004644     0.000413     0.001452     0.084130    -0.172446    -0.057720    -0.013178     0.070898
    3 C     -2.187129     0.753781    -0.772055    -0.178247    -0.036994     0.010423     0.004570     0.038705     0.018390    -0.013998    -0.046076     0.003561    -0.005174    -0.048843    -0.006604     0.055447
    4 C     -3.569393     0.667797    -0.750269    -0.149057     0.035779     0.007537    -0.007301     0.037286    -0.022057     0.025141    -0.034107    -0.001784    -0.051479    -0.043621    -0.012266     0.055887
    5 C     -4.200952    -0.307948     0.015835     0.179013    -0.064680    -0.004159     0.000477     0.064815     0.010242    -0.000670    -0.005593     0.128321    -0.059990    -0.055906    -0.018753     0.074659
    6 C     -3.431690    -1.183353     0.777282    -0.151363     0.036104    -0.001836     0.006829     0.036790     0.019662    -0.018759    -0.036129    -0.012841    -0.046247    -0.041608    -0.011548     0.053156
    7 C     -2.051190    -1.070869     0.790678    -0.174718    -0.035869    -0.014148    -0.004947     0.038874    -0.016853     0.022195    -0.044416     0.012074    -0.006455    -0.049492    -0.007555     0.057047
    8 H     -1.700932     1.505939    -1.381762     0.122350     0.018030     0.037050    -0.032273     0.052339    -0.001488    -0.004037    -0.024290    -0.001917    -0.007133    -0.025220     0.000695     0.024525
    9 H     -4.168906     1.352846    -1.338264     0.124351    -0.027258     0.036283    -0.028057     0.053354    -0.005971     0.001914    -0.021263     0.002780    -0.024516    -0.024924     0.003363     0.021561
   10 H     -3.923628    -1.946628     1.368766     0.125218    -0.021765    -0.039733     0.028060     0.053290     0.005804     0.001198    -0.021259    -0.000726    -0.024401    -0.024804     0.003424     0.021380
   11 H     -1.458791    -1.745308     1.397353     0.121842     0.023301    -0.034212     0.031625     0.052092     0.000958     0.007671    -0.023830    -0.002564    -0.006351    -0.025512     0.000512     0.025000
   12 C      0.613320     1.266966     0.003928     0.191659    -0.025882    -0.051750     0.000530     0.057864     0.031693     0.000512    -0.000852    -0.050244    -0.170836    -0.057148    -0.011601     0.068749
   13 C      1.734648     1.511124    -0.791419    -0.175452     0.026010     0.028671     0.006269     0.039216    -0.006490    -0.033269     0.034022    -0.031714    -0.003456    -0.048715    -0.005114     0.053829
   14 C      2.350445     2.751756    -0.774279    -0.149727    -0.010038    -0.033489    -0.006786     0.035614     0.010108    -0.042903    -0.004612     0.036817    -0.045411    -0.043484    -0.012046     0.055530
   15 C      1.831686     3.783051     0.003678     0.179516     0.028032     0.057485    -0.000417     0.063957     0.051508    -0.004968     0.003331    -0.080633    -0.061320    -0.056301    -0.019012     0.075313
   16 C      0.701121     3.550532     0.781986    -0.151124    -0.020007    -0.029648     0.006851     0.036418    -0.016081    -0.022384     0.035912    -0.026805    -0.045959    -0.042664    -0.012168     0.054832
   17 C      0.109691     2.298118     0.799361    -0.175755     0.005631     0.038177    -0.004800     0.038888     0.014137    -0.047651     0.003390     0.022145    -0.000432    -0.047811    -0.007365     0.055176
   18 H      2.134048     0.716586    -1.410345     0.123279     0.022235    -0.033435    -0.032461     0.051634     0.000028    -0.018966     0.015822     0.003069    -0.005586    -0.025211     0.000620     0.024591
   19 H      3.234197     2.931783    -1.375110     0.123679     0.045147     0.005912    -0.029302     0.054147     0.004207    -0.019398     0.008853     0.008527    -0.023197    -0.024725     0.003303     0.021422
   20 H      0.294368     4.355557     1.382740     0.124612    -0.023139     0.038751     0.029007     0.053652    -0.003135    -0.019093     0.009737    -0.010534    -0.022707    -0.024848     0.003365     0.021484
   21 H     -0.761385     2.118777     1.418206     0.122885    -0.040340    -0.002936     0.032118     0.051648    -0.001199    -0.024505     0.005090    -0.001032    -0.004653    -0.025553     0.000709     0.024844
   22 C      0.791805    -1.173975    -0.001998     0.196060    -0.031787     0.047286     0.000418     0.056978    -0.038144     0.000106     0.001031    -0.031178    -0.174030    -0.058298    -0.011752     0.070050
   23 C      1.944468    -1.250432     0.782346    -0.177564     0.031753    -0.023472    -0.004376     0.039728     0.002645     0.027455     0.040239    -0.035385    -0.004528    -0.048991    -0.006883     0.055875
   24 C      2.735442    -2.387243     0.758684    -0.150757    -0.016049     0.033224     0.007629     0.037678    -0.004306     0.042375     0.001753     0.041971    -0.047222    -0.043071    -0.012174     0.055245
   25 C      2.366219    -3.484291    -0.014661     0.179722     0.036450    -0.051980    -0.000087     0.063486    -0.059632     0.004455     0.004635    -0.047516    -0.059484    -0.055521    -0.018278     0.073799
   26 C      1.205870    -3.421056    -0.781139    -0.151257    -0.024396     0.025768    -0.007154     0.036198     0.012284     0.017040     0.038931    -0.034622    -0.045143    -0.042504    -0.012714     0.055218
   27 C      0.436904    -2.268997    -0.792336    -0.175743     0.010374    -0.038249     0.004448     0.039880    -0.010989     0.047365     0.010651     0.030116    -0.006585    -0.049308    -0.006576     0.055885
   28 H      2.229252    -0.405199     1.397461     0.122521     0.017616     0.036513     0.032160     0.051748     0.000546     0.016497     0.018631     0.002906    -0.005729    -0.025355     0.000524     0.024831
   29 H      3.641956    -2.434818     1.350638     0.124397     0.045454     0.000731     0.028382     0.053592    -0.002801     0.017792     0.011694     0.011084    -0.024013    -0.024837     0.003335     0.021502
   30 H      0.915825    -4.277637    -1.378297     0.124287    -0.017136    -0.041756    -0.028820     0.053552     0.001819     0.017597     0.012509    -0.011389    -0.024143    -0.025027     0.003242     0.021786
   31 H     -0.456991    -2.220312    -1.402647     0.122173    -0.040501    -0.002844    -0.032111     0.051765     0.001145     0.023475     0.008656    -0.000937    -0.006505    -0.025541     0.000635     0.024906
   32 N     -5.611756    -0.408474     0.021310    -0.160549     0.020400     0.002278     0.000546     0.020534     0.012957    -0.002505     0.017831     0.183870     0.159421    -0.119677     0.054100     0.065577
   33 C     -6.427881    -0.314496     1.142854     0.152815     0.041000     0.002427    -0.023005     0.047075     0.000334    -0.044961     0.009053     0.073496     0.064770    -0.050523    -0.018354     0.068877
   34 C     -7.771063    -0.462070     0.746906    -0.035031    -0.031134    -0.000415    -0.004928     0.031524     0.009943     0.013567     0.019342     0.074610     0.143375    -0.066298     0.009561     0.056737
   35 C     -7.763383    -0.653663    -0.687384    -0.036433    -0.030605    -0.003798     0.005964     0.031411     0.000295    -0.015981     0.016826     0.075931     0.147081    -0.066087     0.008596     0.057491
   36 C     -6.415824    -0.614411    -1.093910     0.155987     0.040653     0.003167     0.023087     0.046859     0.010344     0.043619     0.015639     0.070103     0.067708    -0.050783    -0.018696     0.069479
   37 C     -8.782522    -0.393601     1.702872    -0.113073     0.022482     0.001741    -0.001488     0.022599     0.010962     0.018752     0.008699     0.108919    -0.004077    -0.057182    -0.005742     0.062924
   38 C     -8.441890    -0.177024     3.027788    -0.129878     0.027515    -0.000439    -0.019863     0.033939     0.002736    -0.041295     0.014425     0.122704     0.107671    -0.082865     0.000808     0.082057
   39 C     -7.101858    -0.021957     3.402695    -0.081853    -0.007177    -0.004621    -0.035277     0.036296     0.009165     0.019954     0.020717     0.059506     0.190283    -0.066806    -0.006632     0.073438
   40 C     -6.077768    -0.085799     2.471374    -0.200612    -0.018801     0.005856     0.008881     0.021602     0.017881     0.026359     0.013532     0.123111     0.025762    -0.070798    -0.002008     0.072806
   41 C     -8.763144    -0.861093    -1.635573    -0.109791     0.023069     0.000794    -0.000048     0.023082     0.004813    -0.020176     0.006526     0.112669     0.002234    -0.059304    -0.003966     0.063269
   42 C     -8.406250    -1.028390    -2.963362    -0.133461     0.026191     0.004410     0.018964     0.032635     0.014811     0.040286     0.019781     0.117103     0.102410    -0.080875    -0.001701     0.082576
   43 C     -7.060614    -0.996904    -3.348817    -0.076040    -0.006698     0.002826     0.035003     0.035750    -0.000566    -0.021431     0.018228     0.062634     0.193568    -0.067635    -0.006210     0.073844
   44 C     -6.047894    -0.792454    -2.425367    -0.206175    -0.017388    -0.008141    -0.008444     0.020975    -0.000744    -0.028434     0.008879     0.124898     0.030035    -0.069616    -0.001829     0.071445
   45 H     -9.820967    -0.505483     1.411269     0.107033    -0.047447    -0.004614    -0.011894     0.049132     0.002935    -0.001088     0.004088     0.041667     0.018350    -0.024743     0.006563     0.018180
   46 H     -9.217195    -0.122302     3.782802     0.100467    -0.036544     0.002544     0.035430     0.050963     0.002621    -0.004475     0.006019     0.043757     0.040431    -0.029777     0.010667     0.019110
   47 H     -6.857974     0.154779     4.444147     0.099945     0.011779     0.008719     0.049850     0.051960     0.002984     0.001267     0.006648     0.037299     0.045638    -0.027577     0.010625     0.016952
   48 H     -5.043323     0.043390     2.765779     0.109659     0.045128     0.008508     0.021880     0.050869     0.006680     0.014171     0.006249     0.034983     0.034697    -0.025010    -0.002560     0.027570
   49 H     -9.804796    -0.893535    -1.335850     0.106696    -0.047358    -0.001718     0.012247     0.048946     0.003073     0.000309     0.004328     0.042031     0.017675    -0.024870     0.006400     0.018470
   50 H     -9.172483    -1.189281    -3.712452     0.100202    -0.036765    -0.007584    -0.035700     0.051804     0.003454     0.003164     0.006634     0.043278     0.039926    -0.029603     0.010998     0.018605
   51 H     -6.802831    -1.138038    -4.392353     0.098422     0.012327    -0.006836    -0.050525     0.052454     0.001960    -0.002361     0.006443     0.038041     0.046313    -0.027920     0.010617     0.017303
   52 H     -5.007849    -0.777483    -2.727931     0.111343     0.045237    -0.002278    -0.021574     0.050170    -0.001591    -0.014976     0.004392     0.036638     0.036221    -0.024963    -0.002647     0.027610
   53 N      2.447785     5.056181     0.003000    -0.158487    -0.009077    -0.017074     0.000803     0.019353     0.073999     0.018960    -0.009108    -0.115589     0.155945    -0.120834     0.053763     0.067071
   54 C      2.953100     5.714560     1.118332     0.153288    -0.017706    -0.036843    -0.020899     0.045909     0.032095     0.030685     0.034291    -0.034602     0.063401    -0.049884    -0.018961     0.068845
   55 C      3.485648     6.954718     0.717110    -0.034727     0.015255     0.027029    -0.002992     0.031181     0.028086     0.012501    -0.022684    -0.053384     0.141494    -0.067154     0.010106     0.057048
   56 C      3.291655     7.047590    -0.713868    -0.031982     0.013082     0.028840     0.004312     0.031960     0.032040     0.025115     0.004667    -0.039651     0.147687    -0.066792     0.008191     0.058601
   57 C      2.649670     5.859814    -1.113345     0.154573    -0.017416    -0.037281     0.021861     0.046595     0.024587    -0.007355    -0.045538    -0.057028     0.067935    -0.051750    -0.018129     0.069879
   58 C      4.063187     7.795831     1.666075    -0.113870    -0.009699    -0.019274    -0.000205     0.021578     0.041343    -0.001106    -0.022016    -0.073917    -0.001327    -0.057857    -0.005258     0.063115
   59 C      4.103679     7.388809     2.989325    -0.128089    -0.014814    -0.024028    -0.019302     0.034196     0.052222     0.034409     0.028773    -0.065350     0.102638    -0.082524    -0.000275     0.082799
   60 C      3.578746     6.147708     3.369389    -0.081886    -0.001707     0.006517    -0.035252     0.035890     0.019529     0.010289    -0.027239    -0.042506     0.190251    -0.065167    -0.007973     0.073140
   61 C      2.999389     5.293251     2.445052    -0.206080     0.014900     0.013865     0.008847     0.022193     0.042082    -0.000588    -0.029008    -0.091462     0.023638    -0.068628    -0.002170     0.070797
   62 C      3.592021     8.021462    -1.664104    -0.114970    -0.010483    -0.019221     0.000524     0.021901     0.045339     0.016557     0.014532    -0.060493    -0.001163    -0.056883    -0.005399     0.062282
   63 C      3.246925     7.799107    -2.986906    -0.129592    -0.008637    -0.025045     0.018790     0.032479     0.044142    -0.000596    -0.044537    -0.086838     0.102189    -0.082910     0.000449     0.082462
   64 C      2.599468     6.616762    -3.365217    -0.079096     0.007032     0.004303     0.035193     0.036145     0.027062     0.028128     0.009385    -0.029163     0.189813    -0.066889    -0.006649     0.073538
   65 C      2.289764     5.633136    -2.439608    -0.206184     0.001538     0.019771    -0.008740     0.021671     0.054133     0.022026     0.018785    -0.061430     0.026333    -0.069030    -0.001667     0.070697
   66 H      4.476981     8.753566     1.370359     0.107029     0.019239     0.043666    -0.011949     0.049190     0.016486     0.004625    -0.001582    -0.025632     0.017479    -0.024653     0.006507     0.018146
   67 H      4.548504     8.032438     3.739003     0.099731     0.021299     0.030502     0.035585     0.051481     0.017465     0.007886     0.000513    -0.026386     0.039404    -0.029642     0.010729     0.018913
   68 H      3.628004     5.845354     4.409335     0.100330     0.002468    -0.014617     0.049236     0.051419     0.014405     0.005688    -0.004697    -0.024759     0.045529    -0.027852     0.010693     0.017159
   69 H      2.602419     4.330431     2.743161     0.112136    -0.014326    -0.042421     0.021379     0.049617     0.011211    -0.001049    -0.015799    -0.029114     0.034440    -0.024759    -0.002872     0.027632
   70 H      4.086260     8.940697    -1.369748     0.107442     0.022404     0.042228     0.011777     0.049233     0.015973     0.003998    -0.002627    -0.025955     0.017864    -0.024384     0.006598     0.017786
   71 H      3.474857     8.546574    -3.737559     0.099547     0.010803     0.035949    -0.035815     0.051882     0.016868     0.004470    -0.006349    -0.027876     0.039237    -0.029583     0.010823     0.018761
   72 H      2.331164     6.466553    -4.404829     0.099410    -0.013263    -0.007242    -0.049583     0.051835     0.015134     0.007170    -0.001494    -0.022440     0.046501    -0.027834     0.010436     0.017398
   73 H      1.781126     4.723913    -2.736381     0.111706    -0.024766    -0.037624    -0.021572     0.049942     0.016528     0.011627     0.010554    -0.015564     0.034672    -0.024709    -0.002739     0.027448
   74 N      3.163419    -4.652567    -0.022605    -0.155222    -0.010861     0.015157    -0.000153     0.018647    -0.087546    -0.016657    -0.011398    -0.068682     0.158745    -0.121227     0.054477     0.066750
   75 C      3.747679    -5.228860    -1.144905     0.151966    -0.022826     0.033456     0.020934     0.045591    -0.035408    -0.033702     0.028840    -0.014426     0.066232    -0.049611    -0.017700     0.067311
   76 C      4.463399    -6.376004    -0.751870    -0.032892     0.017442    -0.024631     0.005597     0.030696    -0.033186    -0.006485    -0.023716    -0.035774     0.145444    -0.065843     0.007879     0.057964
   77 C      4.302630    -6.496165     0.681106    -0.037475     0.016300    -0.025546    -0.004766     0.030676    -0.036427    -0.024223     0.001733    -0.019520     0.145430    -0.065982     0.008501     0.057480
   78 C      3.496030    -5.416948     1.090103     0.151631    -0.022179     0.033177    -0.019711     0.044510    -0.029576     0.014804    -0.042561    -0.037761     0.061576    -0.047813    -0.019370     0.067183
   79 C      5.148126    -7.122432    -1.708704    -0.113286    -0.011997     0.018912     0.001093     0.022423    -0.050206     0.004251    -0.020647    -0.049648    -0.003988    -0.057776    -0.005706     0.063482
   80 C      5.111943    -6.714541    -3.031800    -0.129207    -0.017115     0.020148     0.020713     0.033584    -0.059314    -0.038044     0.022900    -0.033233     0.107895    -0.083421     0.000879     0.082541
   81 C      4.404023    -5.565335    -3.403845    -0.078653     0.000311    -0.006608     0.034676     0.035302    -0.026157    -0.005812    -0.028049    -0.034400     0.190441    -0.067246    -0.005978     0.073225
   82 C      3.715177    -4.805992    -2.471567    -0.204756     0.015172    -0.010155    -0.009422     0.020545    -0.056006     0.006540    -0.027958    -0.062655     0.023942    -0.070280    -0.002297     0.072578
   83 C      4.756146    -7.414301     1.626054    -0.109434    -0.013011     0.018585    -0.001199     0.022719    -0.053376    -0.017947     0.013372    -0.033922     0.000056    -0.058241    -0.005697     0.063939
   84 C      4.398078    -7.245524     2.953299    -0.129767    -0.013921     0.023362    -0.018432     0.032853    -0.056225     0.008928    -0.043657    -0.057833     0.101305    -0.083587    -0.000024     0.083610
   85 C      3.586570    -6.172574     3.341281    -0.079897     0.006276    -0.002227    -0.035339     0.035961    -0.030184    -0.027946     0.004453    -0.012438     0.190703    -0.066929    -0.006008     0.072936
   86 C      3.122695    -5.246179     2.421021    -0.204198     0.003526    -0.018604     0.007792     0.020476    -0.061729    -0.024351     0.016436    -0.027510     0.025751    -0.069708    -0.002405     0.072113
   87 H      5.703132    -8.007905    -1.419186     0.106871     0.025851    -0.040124     0.012259     0.049280    -0.019565    -0.004278    -0.001490    -0.015251     0.017713    -0.024663     0.006359     0.018304
   88 H      5.638503    -7.285193    -3.787586     0.099949     0.024950    -0.027165    -0.035678     0.051316    -0.020706    -0.007569    -0.000338    -0.014869     0.040399    -0.029770     0.010697     0.019073
   89 H      4.395409    -5.259397    -4.443879     0.098943    -0.000602     0.014928    -0.050081     0.052262    -0.017410    -0.004742    -0.005257    -0.014429     0.045466    -0.027613     0.010649     0.016964
   90 H      3.176187    -3.913017    -2.763988     0.110332    -0.020843     0.040736    -0.021478     0.050548    -0.015504     0.003737    -0.015221    -0.021073     0.033993    -0.024979    -0.002699     0.027678
   91 H      5.377927    -8.249885     1.324200     0.105903     0.028684    -0.038833    -0.012354     0.049833    -0.019285    -0.003254    -0.003057    -0.015547     0.018561    -0.024603     0.006715     0.017888
   92 H      4.743933    -7.950572     3.699909     0.099366     0.016665    -0.033561     0.035739     0.051782    -0.020249    -0.003285    -0.007059    -0.017314     0.039374    -0.029706     0.010637     0.019069
   93 H      3.311545    -6.063689     4.384273     0.099709    -0.013095     0.005036     0.049774     0.051714    -0.017952    -0.006745    -0.002361    -0.012700     0.046113    -0.027908     0.010618     0.017290
   94 H      2.488062    -4.422917     2.725816     0.110721    -0.029706     0.034092     0.022232     0.050389    -0.018247    -0.012949     0.008787    -0.005015     0.035663    -0.024965    -0.002615     0.027580
 
The sperically averaged electron density of each atom fit to a function of the form exp(a - br) for r >=rmin_cloud_penetration
atom number,atomic symbol, x, y, z, a, b, Rsquared where a and b are in atomic units and Rsquared is the squared correlation coefficient
    1 N     -0.002770    -0.005173     0.003765     0.244340     2.027380     0.999620
    2 C     -1.412212    -0.107543     0.007375     1.195080     2.232442     0.998972
    3 C     -2.187129     0.753781    -0.772055     0.665963     2.117237     0.999544
    4 C     -3.569393     0.667797    -0.750269     0.832161     2.165838     0.999773
    5 C     -4.200952    -0.307948     0.015835     1.879350     2.370471     0.998084
    6 C     -3.431690    -1.183353     0.777282     0.824401     2.163132     0.999773
    7 C     -2.051190    -1.070869     0.790678     0.651198     2.116274     0.999521
    8 H     -1.700932     1.505939    -1.381762    -1.403177     2.204450     0.999766
    9 H     -4.168906     1.352846    -1.338264    -1.516093     2.218732     0.998172
   10 H     -3.923628    -1.946628     1.368766    -1.497707     2.223928     0.998233
   11 H     -1.458791    -1.745308     1.397353    -1.392556     2.205920     0.999761
   12 C      0.613320     1.266966     0.003928     1.476473     2.287186     0.998885
   13 C      1.734648     1.511124    -0.791419     0.641653     2.113590     0.999515
   14 C      2.350445     2.751756    -0.774279     0.826376     2.164271     0.999773
   15 C      1.831686     3.783051     0.003678     1.787082     2.352892     0.998281
   16 C      0.701121     3.550532     0.781986     0.827540     2.163734     0.999773
   17 C      0.109691     2.298118     0.799361     0.585583     2.102469     0.999450
   18 H      2.134048     0.716586    -1.410345    -1.405116     2.204517     0.999771
   19 H      3.234197     2.931783    -1.375110    -1.510114     2.220993     0.998203
   20 H      0.294368     4.355557     1.382740    -1.507630     2.221992     0.998227
   21 H     -0.761385     2.118777     1.418206    -1.408558     2.204125     0.999767
   22 C      0.791805    -1.173975    -0.001998     1.207274     2.234496     0.998984
   23 C      1.944468    -1.250432     0.782346     0.666351     2.118331     0.999549
   24 C      2.735442    -2.387243     0.758684     0.828988     2.164156     0.999777
   25 C      2.366219    -3.484291    -0.014661     1.943440     2.383147     0.997946
   26 C      1.205870    -3.421056    -0.781139     0.826732     2.163966     0.999767
   27 C      0.436904    -2.268997    -0.792336     0.631417     2.112451     0.999506
   28 H      2.229252    -0.405199     1.397461    -1.404312     2.204225     0.999770
   29 H      3.641956    -2.434818     1.350638    -1.494742     2.223855     0.998250
   30 H      0.915825    -4.277637    -1.378297    -1.489024     2.225112     0.998248
   31 H     -0.456991    -2.220312    -1.402647    -1.396573     2.205472     0.999768
   32 N     -5.611756    -0.408474     0.021310     0.830876     2.178002     0.998990
   33 C     -6.427881    -0.314496     1.142854     1.965880     2.383698     0.997374
   34 C     -7.771063    -0.462070     0.746906     1.359715     2.253192     0.999641
   35 C     -7.763383    -0.653663    -0.687384     1.142681     2.208277     0.999539
   36 C     -6.415824    -0.614411    -1.093910     1.926796     2.375602     0.997455
   37 C     -8.782522    -0.393601     1.702872     2.672780     2.532518     0.998269
   38 C     -8.441890    -0.177024     3.027788     2.988952     2.607946     0.999211
   39 C     -7.101858    -0.021957     3.402695     2.931021     2.609346     0.999440
   40 C     -6.077768    -0.085799     2.471374     1.868734     2.348227     0.999480
   41 C     -8.763144    -0.861093    -1.635573     2.681982     2.535765     0.998266
   42 C     -8.406250    -1.028390    -2.963362     2.996591     2.608614     0.999198
   43 C     -7.060614    -0.996904    -3.348817     2.949359     2.614799     0.999468
   44 C     -6.047894    -0.792454    -2.425367     1.832714     2.340055     0.999539
   45 H     -9.820967    -0.505483     1.411269     0.438879     2.589111     0.998255
   46 H     -9.217195    -0.122302     3.782802     1.222277     2.787854     0.997977
   47 H     -6.857974     0.154779     4.444147     0.769520     2.711301     0.998508
   48 H     -5.043323     0.043390     2.765779    -0.412110     2.386820     0.999758
   49 H     -9.804796    -0.893535    -1.335850     0.439548     2.588598     0.998277
   50 H     -9.172483    -1.189281    -3.712452     1.223649     2.787786     0.997951
   51 H     -6.802831    -1.138038    -4.392353     0.785339     2.713027     0.998524
   52 H     -5.007849    -0.777483    -2.727931    -0.344497     2.399341     0.999753
   53 N      2.447785     5.056181     0.003000     0.769935     2.166381     0.999180
   54 C      2.953100     5.714560     1.118332     1.967021     2.383996     0.997388
   55 C      3.485648     6.954718     0.717110     1.502564     2.281540     0.999654
   56 C      3.291655     7.047590    -0.713868     1.287847     2.240329     0.999617
   57 C      2.649670     5.859814    -1.113345     2.120998     2.412288     0.996378
   58 C      4.063187     7.795831     1.666075     2.672102     2.531737     0.998252
   59 C      4.103679     7.388809     2.989325     2.997647     2.610379     0.999218
   60 C      3.578746     6.147708     3.369389     2.972255     2.617000     0.999452
   61 C      2.999389     5.293251     2.445052     1.825293     2.338305     0.999534
   62 C      3.592021     8.021462    -1.664104     2.672986     2.531440     0.998256
   63 C      3.246925     7.799107    -2.986906     2.989276     2.607700     0.999210
   64 C      2.599468     6.616762    -3.365217     2.950709     2.614271     0.999459
   65 C      2.289764     5.633136    -2.439608     1.875150     2.348236     0.999458
   66 H      4.476981     8.753566     1.370359     0.441097     2.589302     0.998242
   67 H      4.548504     8.032438     3.739003     1.220915     2.787411     0.997964
   68 H      3.628004     5.845354     4.409335     0.767742     2.711389     0.998525
   69 H      2.602419     4.330431     2.743161    -0.354980     2.397934     0.999756
   70 H      4.086260     8.940697    -1.369748     0.436203     2.588967     0.998252
   71 H      3.474857     8.546574    -3.737559     1.216643     2.787084     0.997985
   72 H      2.331164     6.466553    -4.404829     0.776061     2.711997     0.998509
   73 H      1.781126     4.723913    -2.736381    -0.348018     2.398479     0.999765
   74 N      3.163419    -4.652567    -0.022605     0.897132     2.191772     0.998774
   75 C      3.747679    -5.228860    -1.144905     1.919978     2.374339     0.997487
   76 C      4.463399    -6.376004    -0.751870     1.345243     2.250798     0.999646
   77 C      4.302630    -6.496165     0.681106     1.322401     2.244397     0.999637
   78 C      3.496030    -5.416948     1.090103     1.963879     2.383129     0.997387
   79 C      5.148126    -7.122432    -1.708704     2.524007     2.502474     0.998630
   80 C      5.111943    -6.714541    -3.031800     2.990033     2.608672     0.999210
   81 C      4.404023    -5.565335    -3.403845     2.870049     2.599614     0.999392
   82 C      3.715177    -4.805992    -2.471567     1.853269     2.343305     0.999487
   83 C      4.756146    -7.414301     1.626054     2.683869     2.536020     0.998267
   84 C      4.398078    -7.245524     2.953299     2.998838     2.609636     0.999202
   85 C      3.586570    -6.172574     3.341281     2.943202     2.612413     0.999449
   86 C      3.122695    -5.246179     2.421021     1.879271     2.349524     0.999456
   87 H      5.703132    -8.007905    -1.419186     0.439046     2.588820     0.998267
   88 H      5.638503    -7.285193    -3.787586     1.232387     2.789489     0.997965
   89 H      4.395409    -5.259397    -4.443879     0.775045     2.711732     0.998498
   90 H      3.176187    -3.913017    -2.763988    -0.356080     2.397874     0.999753
   91 H      5.377927    -8.249885     1.324200     0.432853     2.587461     0.998267
   92 H      4.743933    -7.950572     3.699909     1.225422     2.787549     0.997967
   93 H      3.311545    -6.063689     4.384273     0.775216     2.712067     0.998533
   94 H      2.488062    -4.422917     2.725816    -0.343444     2.399155     0.999762
 
  
 Since the system is non-periodic, the total dipole and quadrupole moments were computed relative to the system center of mass.
 Multipole moments (in atomic units) using the net atomic charges:
 Partial_charge_dipole_x =    0.0001   Partial_charge_dipole_y =   -0.0096   Partial_charge_dipole_z =   -0.0009     Partial_charge_dipole_magnitude =    0.0096
 Partial_charge_quadrupole_xy =   -0.0737   Partial_charge_quadrupole_xz =    0.0326   Partial_charge_quadrupole_yz =   -0.0626   Partial_charge_quadrupole_x2minusy2 =    0.0220   Partial_charge_quadrupole_3z2minusr2 =   43.1738
 Eigenvalues of traceless quadrupole moment tensor =   -7.2701  -7.1214  14.3915
 Multipole moments (in atomic units) using the net atomic charges and atomic dipoles:
 Dipole_x =    0.0060   Dipole_y =    0.0016   Dipole_z =    0.0009   Dipole_magnitude =    0.0063
 Quadrupole_xy =   -0.0295   Quadrupole_xz =    0.1174   Quadrupole_yz =   -0.1112   Quadrupole_x2minusy2 =   -0.0829   Quadrupole_3z2minusr2 =   47.3361
 Eigenvalues of traceless quadrupole moment tensor =   -7.9405  -7.8393  15.7798
 Multipole moments (in atomic units) using the net atomic charges, atomic dipoles, and atomic quadrupoles:
 Dipole_x =    0.0060   Dipole_y =    0.0016   Dipole_z =    0.0009   Dipole_magnitude =    0.0063
 Full_quadrupole_xy =   -0.0373   Full_quadrupole_xz =    0.1370   Full_quadrupole_yz =   -0.1204   Full_quadrupole_x2minusy2 =   -0.0652   Full_quadrupole_3z2minusr2 =   50.2152
 Eigenvalues of traceless quadrupole moment tensor =   -8.4190  -8.3207  16.7397
  
 2021/02/21  19:27:25
