   56
Nonperiodic system
C      -4.099352    -1.565871     0.045388    82.135011
C      -2.740266    -1.564816     0.041417    88.865724
C      -2.001201    -0.339015     0.015566    82.654707
C      -0.598854    -0.325965     0.017703    85.807588
C       0.095739     0.892367     0.020057    82.746959
C       1.526221     0.940522     0.050538    88.526606
C       2.189275     2.126865     0.058638    82.150362
C       1.470286     3.353262     0.033386    82.137849
C       0.111377     3.353855     0.005128    88.253011
C      -0.629475     2.128443     0.001791    82.176012
C      -2.031914     2.114754    -0.015008    84.244058
C      -2.727166     0.896618    -0.002646    82.116700
C      -4.158284     0.846652    -0.003627    88.166750
C      -4.819913    -0.340396     0.020385    82.234284
H      -4.640974    -2.504691     0.067884     8.440005
H      -2.193393    -2.499572     0.059782    10.649759
H       2.076145     0.007566     0.069007    10.716024
H       3.272935     2.142371     0.084584     8.460943
H       2.013008     4.291746     0.037352     8.489346
H      -0.433184     4.289895    -0.014534    10.554676
H      -4.710481     1.778204    -0.023041    10.503076
H      -5.903898    -0.357058     0.021152     8.472447
C      -2.787461     3.400694    -0.025449    82.256073
C      -3.140572     4.002243    -1.205234    90.019561
C      -3.859601     5.223560    -1.223028    78.885195
C      -4.232716     5.858244    -2.435056    85.615121
C      -4.926958     7.036579    -2.421538    83.791229
C      -5.283679     7.640738    -1.194559    83.739370
C      -4.937488     7.051962    -0.009559    86.355462
C      -4.217904     5.830526     0.009081    79.593747
C      -3.842342     5.191423     1.217583    85.313774
C      -3.149082     4.013769     1.201693    86.546606
H      -2.866849     3.537892    -2.147512     9.524888
H      -3.957450     5.391895    -3.375331     8.862018
H      -5.207226     7.513268    -3.353961     8.516596
H      -5.834051     8.574676    -1.197912     8.514504
H      -5.209701     7.512997     0.934339     9.030313
H      -4.114727     5.652950     2.161207     8.817973
H      -2.865116     3.529942     2.129699     8.965229
C       0.157076    -1.612717     0.028195    84.217403
C       0.511489    -2.210273    -1.154741    86.523967
C       1.227145    -3.426821    -1.172966    82.985777
C       1.581557    -4.034211    -0.001416    86.386376
C       1.236466    -3.452945     1.244530    79.714168
C       1.592422    -4.063089     2.474231    86.437678
C       1.251096    -3.487972     3.666690    83.629270
C       0.534900    -2.270822     3.687549    82.138746
C       0.176696    -1.656941     2.518981    88.806602
C       0.515966    -2.228310     1.265154    82.084598
H       0.234464    -1.734919    -2.089317     8.934412
H       1.492906    -3.874495    -2.123793     8.365308
H       2.131870    -4.969376    -0.008200     9.050833
H       2.142707    -4.998133     2.451383     9.062321
H       1.528732    -3.963801     4.600383     8.536922
H       0.268603    -1.822222     4.637803     8.404376
H      -0.372812    -0.723043     2.537170    10.534915
  
Same information as above printed with atom number.
   1 C     -4.099352    -1.565871     0.045388    82.135011
   2 C     -2.740266    -1.564816     0.041417    88.865724
   3 C     -2.001201    -0.339015     0.015566    82.654707
   4 C     -0.598854    -0.325965     0.017703    85.807588
   5 C      0.095739     0.892367     0.020057    82.746959
   6 C      1.526221     0.940522     0.050538    88.526606
   7 C      2.189275     2.126865     0.058638    82.150362
   8 C      1.470286     3.353262     0.033386    82.137849
   9 C      0.111377     3.353855     0.005128    88.253011
  10 C     -0.629475     2.128443     0.001791    82.176012
  11 C     -2.031914     2.114754    -0.015008    84.244058
  12 C     -2.727166     0.896618    -0.002646    82.116700
  13 C     -4.158284     0.846652    -0.003627    88.166750
  14 C     -4.819913    -0.340396     0.020385    82.234284
  15 H     -4.640974    -2.504691     0.067884     8.440005
  16 H     -2.193393    -2.499572     0.059782    10.649759
  17 H      2.076145     0.007566     0.069007    10.716024
  18 H      3.272935     2.142371     0.084584     8.460943
  19 H      2.013008     4.291746     0.037352     8.489346
  20 H     -0.433184     4.289895    -0.014534    10.554676
  21 H     -4.710481     1.778204    -0.023041    10.503076
  22 H     -5.903898    -0.357058     0.021152     8.472447
  23 C     -2.787461     3.400694    -0.025449    82.256073
  24 C     -3.140572     4.002243    -1.205234    90.019561
  25 C     -3.859601     5.223560    -1.223028    78.885195
  26 C     -4.232716     5.858244    -2.435056    85.615121
  27 C     -4.926958     7.036579    -2.421538    83.791229
  28 C     -5.283679     7.640738    -1.194559    83.739370
  29 C     -4.937488     7.051962    -0.009559    86.355462
  30 C     -4.217904     5.830526     0.009081    79.593747
  31 C     -3.842342     5.191423     1.217583    85.313774
  32 C     -3.149082     4.013769     1.201693    86.546606
  33 H     -2.866849     3.537892    -2.147512     9.524888
  34 H     -3.957450     5.391895    -3.375331     8.862018
  35 H     -5.207226     7.513268    -3.353961     8.516596
  36 H     -5.834051     8.574676    -1.197912     8.514504
  37 H     -5.209701     7.512997     0.934339     9.030313
  38 H     -4.114727     5.652950     2.161207     8.817973
  39 H     -2.865116     3.529942     2.129699     8.965229
  40 C      0.157076    -1.612717     0.028195    84.217403
  41 C      0.511489    -2.210273    -1.154741    86.523967
  42 C      1.227145    -3.426821    -1.172966    82.985777
  43 C      1.581557    -4.034211    -0.001416    86.386376
  44 C      1.236466    -3.452945     1.244530    79.714168
  45 C      1.592422    -4.063089     2.474231    86.437678
  46 C      1.251096    -3.487972     3.666690    83.629270
  47 C      0.534900    -2.270822     3.687549    82.138746
  48 C      0.176696    -1.656941     2.518981    88.806602
  49 C      0.515966    -2.228310     1.265154    82.084598
  50 H      0.234464    -1.734919    -2.089317     8.934412
  51 H      1.492906    -3.874495    -2.123793     8.365308
  52 H      2.131870    -4.969376    -0.008200     9.050833
  53 H      2.142707    -4.998133     2.451383     9.062321
  54 H      1.528732    -3.963801     4.600383     8.536922
  55 H      0.268603    -1.822222     4.637803     8.404376
  56 H     -0.372812    -0.723043     2.537170    10.534915
