   69
Nonperiodic system
C      -0.066616     0.366601     0.139565    13.214711
C       1.326892     0.337431     0.139167    11.834157
C       2.025807     1.543400     0.138650    13.221015
C       1.354339     2.764808     0.138068    11.845280
C      -0.039490     2.767111     0.137932    13.216902
C      -0.761451     1.574888     0.138590    11.844913
H      -0.620005    -0.566345     0.140048     1.787832
H       3.110457     1.530726     0.138251     1.780990
H      -0.570909     3.712740     0.136904     1.787382
C       1.717514     5.103647     0.956431    12.931408
C       2.109515     4.043191     0.137780    11.838269
C       3.230652     4.203225    -0.676032    13.256427
C       3.957831     5.393181    -0.686412    11.924505
C       3.546122     6.440335     0.139932    12.984623
C       2.433267     6.292445     0.955080    12.616802
H       0.861231     4.987614     1.611464     1.709504
H       3.543006     3.384241    -1.315430     1.794153
H       4.086739     7.380376     0.126156     1.727956
H       2.120471     7.110445     1.593945     1.668549
C       6.314715     6.149075    -1.119698    12.683271
C       5.141035     5.543738    -1.565539    12.108487
C       5.124358     5.085422    -2.885805    11.820333
N       6.149901     5.182236    -3.725996    12.998897
C       7.261426     5.760235    -3.274604    11.736981
C       7.390834     6.261701    -1.985795    12.939669
H       6.386861     6.509620    -0.099033     1.695143
H       4.222060     4.629599    -3.285781     1.766316
H       8.086656     5.824878    -3.977951     1.727051
H       8.319144     6.720592    -1.667646     1.658136
C       3.170730    -1.147204     0.957253    12.943115
C       2.056009    -0.956003     0.139175    11.861216
C       1.632669    -2.007014    -0.673895    13.229515
C       2.298341    -3.232417    -0.683713    11.929300
C       3.411442    -3.399921     0.142030    12.994157
C       3.841352    -2.362077     0.956175    12.615909
H       3.499428    -0.347493     1.611604     1.708202
H       0.767095    -1.867690    -1.313036     1.796222
H       3.954323    -4.338665     0.128616     1.726373
H       4.706410    -2.500563     1.594619     1.661658
C       1.771484    -5.651326    -1.113118    12.702173
C       1.835136    -4.332975    -1.561035    12.102818
C       1.445458    -4.090980    -2.881246    11.835979
N       1.014738    -5.028398    -3.719570    13.013209
C       0.958681    -6.279270    -3.266266    11.711314
C       1.329067    -6.640461    -1.977239    12.930755
H       2.048303    -5.892821    -0.092339     1.691588
H       1.502433    -3.082325    -3.282820     1.754188
H       0.600542    -7.026913    -3.968150     1.729347
H       1.261497    -7.673273    -1.657415     1.660949
C      -2.969177     0.723795     0.959790    12.926592
C      -2.246141     1.590191     0.138222    11.847836
C      -2.944535     2.478911    -0.678617    13.233695
C      -4.338623     2.514896    -0.688922    11.928274
C      -5.040379     1.638256     0.140499    12.989559
C      -4.356598     0.750533     0.958537    12.631905
H      -2.440984     0.041982     1.616980     1.708470
H      -2.390854     3.156278    -1.320307     1.794657
H      -6.124787     1.637460     0.126883     1.725679
H      -4.909144     0.073334     1.599796     1.665472
C      -6.170037     4.178531    -1.127147    12.709738
C      -5.059755     3.462253    -1.570945    12.091099
C      -4.654277     3.672660    -2.891848    11.828615
N      -5.249967     4.510667    -3.734417    13.004043
C      -6.305488     5.186807    -3.284901    11.707770
C      -6.804625     5.052387    -1.995730    12.942293
H      -6.518437     4.064058    -0.106134     1.689963
H      -3.808957     3.117076    -3.290178     1.765476
H      -6.773209     5.867759    -3.990170     1.730023
H      -7.665523     5.628814    -1.679270     1.656936
  
Same information as above printed with atom number.
   1 C     -0.066616     0.366601     0.139565    13.214711
   2 C      1.326892     0.337431     0.139167    11.834157
   3 C      2.025807     1.543400     0.138650    13.221015
   4 C      1.354339     2.764808     0.138068    11.845280
   5 C     -0.039490     2.767111     0.137932    13.216902
   6 C     -0.761451     1.574888     0.138590    11.844913
   7 H     -0.620005    -0.566345     0.140048     1.787832
   8 H      3.110457     1.530726     0.138251     1.780990
   9 H     -0.570909     3.712740     0.136904     1.787382
  10 C      1.717514     5.103647     0.956431    12.931408
  11 C      2.109515     4.043191     0.137780    11.838269
  12 C      3.230652     4.203225    -0.676032    13.256427
  13 C      3.957831     5.393181    -0.686412    11.924505
  14 C      3.546122     6.440335     0.139932    12.984623
  15 C      2.433267     6.292445     0.955080    12.616802
  16 H      0.861231     4.987614     1.611464     1.709504
  17 H      3.543006     3.384241    -1.315430     1.794153
  18 H      4.086739     7.380376     0.126156     1.727956
  19 H      2.120471     7.110445     1.593945     1.668549
  20 C      6.314715     6.149075    -1.119698    12.683271
  21 C      5.141035     5.543738    -1.565539    12.108487
  22 C      5.124358     5.085422    -2.885805    11.820333
  23 N      6.149901     5.182236    -3.725996    12.998897
  24 C      7.261426     5.760235    -3.274604    11.736981
  25 C      7.390834     6.261701    -1.985795    12.939669
  26 H      6.386861     6.509620    -0.099033     1.695143
  27 H      4.222060     4.629599    -3.285781     1.766316
  28 H      8.086656     5.824878    -3.977951     1.727051
  29 H      8.319144     6.720592    -1.667646     1.658136
  30 C      3.170730    -1.147204     0.957253    12.943115
  31 C      2.056009    -0.956003     0.139175    11.861216
  32 C      1.632669    -2.007014    -0.673895    13.229515
  33 C      2.298341    -3.232417    -0.683713    11.929300
  34 C      3.411442    -3.399921     0.142030    12.994157
  35 C      3.841352    -2.362077     0.956175    12.615909
  36 H      3.499428    -0.347493     1.611604     1.708202
  37 H      0.767095    -1.867690    -1.313036     1.796222
  38 H      3.954323    -4.338665     0.128616     1.726373
  39 H      4.706410    -2.500563     1.594619     1.661658
  40 C      1.771484    -5.651326    -1.113118    12.702173
  41 C      1.835136    -4.332975    -1.561035    12.102818
  42 C      1.445458    -4.090980    -2.881246    11.835979
  43 N      1.014738    -5.028398    -3.719570    13.013209
  44 C      0.958681    -6.279270    -3.266266    11.711314
  45 C      1.329067    -6.640461    -1.977239    12.930755
  46 H      2.048303    -5.892821    -0.092339     1.691588
  47 H      1.502433    -3.082325    -3.282820     1.754188
  48 H      0.600542    -7.026913    -3.968150     1.729347
  49 H      1.261497    -7.673273    -1.657415     1.660949
  50 C     -2.969177     0.723795     0.959790    12.926592
  51 C     -2.246141     1.590191     0.138222    11.847836
  52 C     -2.944535     2.478911    -0.678617    13.233695
  53 C     -4.338623     2.514896    -0.688922    11.928274
  54 C     -5.040379     1.638256     0.140499    12.989559
  55 C     -4.356598     0.750533     0.958537    12.631905
  56 H     -2.440984     0.041982     1.616980     1.708470
  57 H     -2.390854     3.156278    -1.320307     1.794657
  58 H     -6.124787     1.637460     0.126883     1.725679
  59 H     -4.909144     0.073334     1.599796     1.665472
  60 C     -6.170037     4.178531    -1.127147    12.709738
  61 C     -5.059755     3.462253    -1.570945    12.091099
  62 C     -4.654277     3.672660    -2.891848    11.828615
  63 N     -5.249967     4.510667    -3.734417    13.004043
  64 C     -6.305488     5.186807    -3.284901    11.707770
  65 C     -6.804625     5.052387    -1.995730    12.942293
  66 H     -6.518437     4.064058    -0.106134     1.689963
  67 H     -3.808957     3.117076    -3.290178     1.765476
  68 H     -6.773209     5.867759    -3.990170     1.730023
  69 H     -7.665523     5.628814    -1.679270     1.656936
