   69
Nonperiodic system
C      -0.066616     0.366601     0.139565    31.447436
C       1.326892     0.337431     0.139167    27.691761
C       2.025807     1.543400     0.138650    31.452769
C       1.354339     2.764808     0.138068    27.707442
C      -0.039490     2.767111     0.137932    31.457082
C      -0.761451     1.574888     0.138590    27.708361
H      -0.620005    -0.566345     0.140048     3.878777
H       3.110457     1.530726     0.138251     3.879291
H      -0.570909     3.712740     0.136904     3.880224
C       1.717514     5.103647     0.956431    30.380839
C       2.109515     4.043191     0.137780    27.687804
C       3.230652     4.203225    -0.676032    31.640038
C       3.957831     5.393181    -0.686412    28.047540
C       3.546122     6.440335     0.139932    30.603467
C       2.433267     6.292445     0.955080    29.368510
H       0.861231     4.987614     1.611464     3.562557
H       3.543006     3.384241    -1.315430     3.900709
H       4.086739     7.380376     0.126156     3.623420
H       2.120471     7.110445     1.593945     3.357313
C       6.314715     6.149075    -1.119698    29.674967
C       5.141035     5.543738    -1.565539    28.313729
C       5.124358     5.085422    -2.885805    26.911415
N       6.149901     5.182236    -3.725996    27.821992
C       7.261426     5.760235    -3.274604    26.777523
C       7.390834     6.261701    -1.985795    30.206177
H       6.386861     6.509620    -0.099033     3.528836
H       4.222060     4.629599    -3.285781     3.673353
H       8.086656     5.824878    -3.977951     3.512876
H       8.319144     6.720592    -1.667646     3.369905
C       3.170730    -1.147204     0.957253    30.426342
C       2.056009    -0.956003     0.139175    27.737346
C       1.632669    -2.007014    -0.673895    31.553260
C       2.298341    -3.232417    -0.683713    28.062623
C       3.411442    -3.399921     0.142030    30.640494
C       3.841352    -2.362077     0.956175    29.385824
H       3.499428    -0.347493     1.611604     3.558219
H       0.767095    -1.867690    -1.313036     3.906228
H       3.954323    -4.338665     0.128616     3.618488
H       4.706410    -2.500563     1.594619     3.342853
C       1.771484    -5.651326    -1.113118    29.743818
C       1.835136    -4.332975    -1.561035    28.297162
C       1.445458    -4.090980    -2.881246    26.956312
N       1.014738    -5.028398    -3.719570    27.868647
C       0.958681    -6.279270    -3.266266    26.647812
C       1.329067    -6.640461    -1.977239    30.184234
H       2.048303    -5.892821    -0.092339     3.519921
H       1.502433    -3.082325    -3.282820     3.655019
H       0.600542    -7.026913    -3.968150     3.522476
H       1.261497    -7.673273    -1.657415     3.375746
C      -2.969177     0.723795     0.959790    30.365819
C      -2.246141     1.590191     0.138222    27.706778
C      -2.944535     2.478911    -0.678617    31.563372
C      -4.338623     2.514896    -0.688922    28.060547
C      -5.040379     1.638256     0.140499    30.619412
C      -4.356598     0.750533     0.958537    29.439865
H      -2.440984     0.041982     1.616980     3.558871
H      -2.390854     3.156278    -1.320307     3.901509
H      -6.124787     1.637460     0.126883     3.617314
H      -4.909144     0.073334     1.599796     3.348035
C      -6.170037     4.178531    -1.127147    29.764570
C      -5.059755     3.462253    -1.570945    28.262953
C      -4.654277     3.672660    -2.891848    26.929175
N      -5.249967     4.510667    -3.734417    27.841275
C      -6.305488     5.186807    -3.284901    26.638688
C      -6.804625     5.052387    -1.995730    30.220482
H      -6.518437     4.064058    -0.106134     3.515158
H      -3.808957     3.117076    -3.290178     3.673835
H      -6.773209     5.867759    -3.990170     3.523934
H      -7.665523     5.628814    -1.679270     3.367567
  
Same information as above printed with atom number.
   1 C     -0.066616     0.366601     0.139565    31.447436
   2 C      1.326892     0.337431     0.139167    27.691761
   3 C      2.025807     1.543400     0.138650    31.452769
   4 C      1.354339     2.764808     0.138068    27.707442
   5 C     -0.039490     2.767111     0.137932    31.457082
   6 C     -0.761451     1.574888     0.138590    27.708361
   7 H     -0.620005    -0.566345     0.140048     3.878777
   8 H      3.110457     1.530726     0.138251     3.879291
   9 H     -0.570909     3.712740     0.136904     3.880224
  10 C      1.717514     5.103647     0.956431    30.380839
  11 C      2.109515     4.043191     0.137780    27.687804
  12 C      3.230652     4.203225    -0.676032    31.640038
  13 C      3.957831     5.393181    -0.686412    28.047540
  14 C      3.546122     6.440335     0.139932    30.603467
  15 C      2.433267     6.292445     0.955080    29.368510
  16 H      0.861231     4.987614     1.611464     3.562557
  17 H      3.543006     3.384241    -1.315430     3.900709
  18 H      4.086739     7.380376     0.126156     3.623420
  19 H      2.120471     7.110445     1.593945     3.357313
  20 C      6.314715     6.149075    -1.119698    29.674967
  21 C      5.141035     5.543738    -1.565539    28.313729
  22 C      5.124358     5.085422    -2.885805    26.911415
  23 N      6.149901     5.182236    -3.725996    27.821992
  24 C      7.261426     5.760235    -3.274604    26.777523
  25 C      7.390834     6.261701    -1.985795    30.206177
  26 H      6.386861     6.509620    -0.099033     3.528836
  27 H      4.222060     4.629599    -3.285781     3.673353
  28 H      8.086656     5.824878    -3.977951     3.512876
  29 H      8.319144     6.720592    -1.667646     3.369905
  30 C      3.170730    -1.147204     0.957253    30.426342
  31 C      2.056009    -0.956003     0.139175    27.737346
  32 C      1.632669    -2.007014    -0.673895    31.553260
  33 C      2.298341    -3.232417    -0.683713    28.062623
  34 C      3.411442    -3.399921     0.142030    30.640494
  35 C      3.841352    -2.362077     0.956175    29.385824
  36 H      3.499428    -0.347493     1.611604     3.558219
  37 H      0.767095    -1.867690    -1.313036     3.906228
  38 H      3.954323    -4.338665     0.128616     3.618488
  39 H      4.706410    -2.500563     1.594619     3.342853
  40 C      1.771484    -5.651326    -1.113118    29.743818
  41 C      1.835136    -4.332975    -1.561035    28.297162
  42 C      1.445458    -4.090980    -2.881246    26.956312
  43 N      1.014738    -5.028398    -3.719570    27.868647
  44 C      0.958681    -6.279270    -3.266266    26.647812
  45 C      1.329067    -6.640461    -1.977239    30.184234
  46 H      2.048303    -5.892821    -0.092339     3.519921
  47 H      1.502433    -3.082325    -3.282820     3.655019
  48 H      0.600542    -7.026913    -3.968150     3.522476
  49 H      1.261497    -7.673273    -1.657415     3.375746
  50 C     -2.969177     0.723795     0.959790    30.365819
  51 C     -2.246141     1.590191     0.138222    27.706778
  52 C     -2.944535     2.478911    -0.678617    31.563372
  53 C     -4.338623     2.514896    -0.688922    28.060547
  54 C     -5.040379     1.638256     0.140499    30.619412
  55 C     -4.356598     0.750533     0.958537    29.439865
  56 H     -2.440984     0.041982     1.616980     3.558871
  57 H     -2.390854     3.156278    -1.320307     3.901509
  58 H     -6.124787     1.637460     0.126883     3.617314
  59 H     -4.909144     0.073334     1.599796     3.348035
  60 C     -6.170037     4.178531    -1.127147    29.764570
  61 C     -5.059755     3.462253    -1.570945    28.262953
  62 C     -4.654277     3.672660    -2.891848    26.929175
  63 N     -5.249967     4.510667    -3.734417    27.841275
  64 C     -6.305488     5.186807    -3.284901    26.638688
  65 C     -6.804625     5.052387    -1.995730    30.220482
  66 H     -6.518437     4.064058    -0.106134     3.515158
  67 H     -3.808957     3.117076    -3.290178     3.673835
  68 H     -6.773209     5.867759    -3.990170     3.523934
  69 H     -7.665523     5.628814    -1.679270     3.367567
