   62
Nonperiodic system
N       4.182990    -0.086860     0.355090    26.149805
C       4.425790     1.159030    -0.213910    26.832324
C       5.784620     1.241710    -0.572990    29.010484
C       6.391190    -0.018490    -0.202120    28.951176
C       5.372410    -0.807580     0.365080    26.910653
C       3.551350     2.225280    -0.410920    31.331810
C       4.062260     3.374740    -0.992030    29.844880
C       5.408230     3.469490    -1.365670    30.569385
C       6.273980     2.409180    -1.155440    30.039618
C       7.680921    -0.533920    -0.314110    30.085826
C       7.932031    -1.820230     0.133560    30.543803
C       6.904610    -2.595910     0.683900    29.903179
C       5.614000    -2.106470     0.806340    31.377917
H       2.511090     2.161990    -0.115830     3.649645
H       3.403360     4.219520    -1.157730     3.408587
H       5.773460     4.383500    -1.818820     3.454177
H       7.318561     2.485350    -1.436470     3.442953
H       8.474261     0.064020    -0.748870     3.438568
H       8.930091    -2.234660     0.054340     3.455467
H       7.120581    -3.603750     1.019970     3.395613
H       4.821660    -2.715440     1.224150     3.716585
C       2.810190    -0.971760     2.157210    30.472194
C       2.934880    -0.546080     0.837930    26.319480
C       1.831950    -0.560940    -0.008790    31.678031
C       0.587770    -0.988420     0.453220    27.794410
C       0.474430    -1.424330     1.774900    30.386937
C       1.579240    -1.420140     2.614870    29.289310
H       3.672900    -0.941540     2.811930     3.430525
H       1.948360    -0.218760    -1.030930     3.816538
H      -0.479690    -1.787290     2.139780     3.505159
H       1.479180    -1.762560     3.638230     3.304808
C      -0.587720    -0.988430    -0.453220    27.796895
C      -0.474400    -1.424420    -1.774880    30.390256
C      -1.579210    -1.420250    -2.614850    29.226529
C      -2.810140    -0.971820    -2.157220    30.480854
C      -2.934820    -0.546060    -0.837950    26.322611
C      -1.831890    -0.560900     0.008760    31.677904
H       0.479720    -1.787420    -2.139740     3.506773
H      -1.479150    -1.762730    -3.638190     3.308259
H      -3.672850    -0.941610    -2.811930     3.431018
H      -1.948300    -0.218660     1.030880     3.816679
N      -4.182930    -0.086790    -0.355140    26.147864
C      -4.425700     1.159150     0.213780    26.834497
C      -5.784530     1.241880     0.572850    29.005241
C      -6.391130    -0.018330     0.202060    28.953543
C      -5.372360    -0.807480    -0.365090    26.911793
C      -3.551240     2.225380     0.410730    31.337917
C      -4.062120     3.374890     0.991770    29.871424
C      -5.408090     3.469690     1.365400    30.566265
C      -6.273870     2.409400     1.155230    30.049620
C      -7.680871    -0.533730     0.314070    30.075162
C      -7.932011    -1.820060    -0.133530    30.581294
C      -6.904610    -2.595790    -0.683820    29.897563
C      -5.613980    -2.106390    -0.806280    31.377419
H      -2.510980     2.162050     0.115650     3.649905
H      -3.403200     4.219660     1.157430     3.394680
H      -5.773300     4.383730     1.818490     3.454983
H      -7.318441     2.485600     1.436260     3.441974
H      -8.474201     0.064250     0.748790     3.438882
H      -8.930081    -2.234460    -0.054290     3.452890
H      -7.120601    -3.603640    -1.019830     3.395283
H      -4.821650    -2.715400    -1.224050     3.717124
  
Same information as above printed with atom number.
   1 N      4.182990    -0.086860     0.355090    26.149805
   2 C      4.425790     1.159030    -0.213910    26.832324
   3 C      5.784620     1.241710    -0.572990    29.010484
   4 C      6.391190    -0.018490    -0.202120    28.951176
   5 C      5.372410    -0.807580     0.365080    26.910653
   6 C      3.551350     2.225280    -0.410920    31.331810
   7 C      4.062260     3.374740    -0.992030    29.844880
   8 C      5.408230     3.469490    -1.365670    30.569385
   9 C      6.273980     2.409180    -1.155440    30.039618
  10 C      7.680921    -0.533920    -0.314110    30.085826
  11 C      7.932031    -1.820230     0.133560    30.543803
  12 C      6.904610    -2.595910     0.683900    29.903179
  13 C      5.614000    -2.106470     0.806340    31.377917
  14 H      2.511090     2.161990    -0.115830     3.649645
  15 H      3.403360     4.219520    -1.157730     3.408587
  16 H      5.773460     4.383500    -1.818820     3.454177
  17 H      7.318561     2.485350    -1.436470     3.442953
  18 H      8.474261     0.064020    -0.748870     3.438568
  19 H      8.930091    -2.234660     0.054340     3.455467
  20 H      7.120581    -3.603750     1.019970     3.395613
  21 H      4.821660    -2.715440     1.224150     3.716585
  22 C      2.810190    -0.971760     2.157210    30.472194
  23 C      2.934880    -0.546080     0.837930    26.319480
  24 C      1.831950    -0.560940    -0.008790    31.678031
  25 C      0.587770    -0.988420     0.453220    27.794410
  26 C      0.474430    -1.424330     1.774900    30.386937
  27 C      1.579240    -1.420140     2.614870    29.289310
  28 H      3.672900    -0.941540     2.811930     3.430525
  29 H      1.948360    -0.218760    -1.030930     3.816538
  30 H     -0.479690    -1.787290     2.139780     3.505159
  31 H      1.479180    -1.762560     3.638230     3.304808
  32 C     -0.587720    -0.988430    -0.453220    27.796895
  33 C     -0.474400    -1.424420    -1.774880    30.390256
  34 C     -1.579210    -1.420250    -2.614850    29.226529
  35 C     -2.810140    -0.971820    -2.157220    30.480854
  36 C     -2.934820    -0.546060    -0.837950    26.322611
  37 C     -1.831890    -0.560900     0.008760    31.677904
  38 H      0.479720    -1.787420    -2.139740     3.506773
  39 H     -1.479150    -1.762730    -3.638190     3.308259
  40 H     -3.672850    -0.941610    -2.811930     3.431018
  41 H     -1.948300    -0.218660     1.030880     3.816679
  42 N     -4.182930    -0.086790    -0.355140    26.147864
  43 C     -4.425700     1.159150     0.213780    26.834497
  44 C     -5.784530     1.241880     0.572850    29.005241
  45 C     -6.391130    -0.018330     0.202060    28.953543
  46 C     -5.372360    -0.807480    -0.365090    26.911793
  47 C     -3.551240     2.225380     0.410730    31.337917
  48 C     -4.062120     3.374890     0.991770    29.871424
  49 C     -5.408090     3.469690     1.365400    30.566265
  50 C     -6.273870     2.409400     1.155230    30.049620
  51 C     -7.680871    -0.533730     0.314070    30.075162
  52 C     -7.932011    -1.820060    -0.133530    30.581294
  53 C     -6.904610    -2.595790    -0.683820    29.897563
  54 C     -5.613980    -2.106390    -0.806280    31.377419
  55 H     -2.510980     2.162050     0.115650     3.649905
  56 H     -3.403200     4.219660     1.157430     3.394680
  57 H     -5.773300     4.383730     1.818490     3.454983
  58 H     -7.318441     2.485600     1.436260     3.441974
  59 H     -8.474201     0.064250     0.748790     3.438882
  60 H     -8.930081    -2.234460    -0.054290     3.452890
  61 H     -7.120601    -3.603640    -1.019830     3.395283
  62 H     -4.821650    -2.715400    -1.224050     3.717124
