   62
Nonperiodic system
N       4.182990    -0.086860     0.355090    12.148353
C       4.425790     1.159030    -0.213910    11.535125
C       5.784620     1.241710    -0.572990    12.340229
C       6.391190    -0.018490    -0.202120    12.318556
C       5.372410    -0.807580     0.365080    11.560502
C       3.551350     2.225280    -0.410920    13.252236
C       4.062260     3.374740    -0.992030    12.728143
C       5.408230     3.469490    -1.365670    12.979282
C       6.273980     2.409180    -1.155440    12.815797
C       7.680921    -0.533920    -0.314110    12.827215
C       7.932031    -1.820230     0.133560    12.977984
C       6.904610    -2.595910     0.683900    12.746828
C       5.614000    -2.106470     0.806340    13.259049
H       2.511090     2.161990    -0.115830     1.724573
H       3.403360     4.219520    -1.157730     1.685651
H       5.773460     4.383500    -1.818820     1.695043
H       7.318561     2.485350    -1.436470     1.677061
H       8.474261     0.064020    -0.748870     1.675864
H       8.930091    -2.234660     0.054340     1.694697
H       7.120581    -3.603750     1.019970     1.677145
H       4.821660    -2.715440     1.224150     1.745273
C       2.810190    -0.971760     2.157210    13.001731
C       2.934880    -0.546080     0.837930    11.331662
C       1.831950    -0.560940    -0.008790    13.298464
C       0.587770    -0.988420     0.453220    11.857786
C       0.474430    -1.424330     1.774900    12.941629
C       1.579240    -1.420140     2.614870    12.583706
H       3.672900    -0.941540     2.811930     1.651685
H       1.948360    -0.218760    -1.030930     1.750682
H      -0.479690    -1.787290     2.139780     1.690247
H       1.479180    -1.762560     3.638230     1.650308
C      -0.587720    -0.988430    -0.453220    11.858231
C      -0.474400    -1.424420    -1.774880    12.941930
C      -1.579210    -1.420250    -2.614850    12.572764
C      -2.810140    -0.971820    -2.157220    13.003541
C      -2.934820    -0.546060    -0.837950    11.332777
C      -1.831890    -0.560900     0.008760    13.298422
H       0.479720    -1.787420    -2.139740     1.690729
H      -1.479150    -1.762730    -3.638190     1.651100
H      -3.672850    -0.941610    -2.811930     1.651757
H      -1.948300    -0.218660     1.030880     1.750766
N      -4.182930    -0.086790    -0.355140    12.147163
C      -4.425700     1.159150     0.213780    11.535947
C      -5.784530     1.241880     0.572850    12.338257
C      -6.391130    -0.018330     0.202060    12.318646
C      -5.372360    -0.807480    -0.365090    11.560778
C      -3.551240     2.225380     0.410730    13.254015
C      -4.062120     3.374890     0.991770    12.736951
C      -5.408090     3.469690     1.365400    12.978453
C      -6.273870     2.409400     1.155230    12.818993
C      -7.680871    -0.533730     0.314070    12.824457
C      -7.932011    -1.820060    -0.133530    12.984788
C      -6.904610    -2.595790    -0.683820    12.745334
C      -5.613980    -2.106390    -0.806280    13.258991
H      -2.510980     2.162050     0.115650     1.724575
H      -3.403200     4.219660     1.157430     1.678287
H      -5.773300     4.383730     1.818490     1.695231
H      -7.318441     2.485600     1.436260     1.676700
H      -8.474201     0.064250     0.748790     1.676088
H      -8.930081    -2.234460    -0.054290     1.694036
H      -7.120601    -3.603640    -1.019830     1.677153
H      -4.821650    -2.715400    -1.224050     1.745408
  
Same information as above printed with atom number.
   1 N      4.182990    -0.086860     0.355090    12.148353
   2 C      4.425790     1.159030    -0.213910    11.535125
   3 C      5.784620     1.241710    -0.572990    12.340229
   4 C      6.391190    -0.018490    -0.202120    12.318556
   5 C      5.372410    -0.807580     0.365080    11.560502
   6 C      3.551350     2.225280    -0.410920    13.252236
   7 C      4.062260     3.374740    -0.992030    12.728143
   8 C      5.408230     3.469490    -1.365670    12.979282
   9 C      6.273980     2.409180    -1.155440    12.815797
  10 C      7.680921    -0.533920    -0.314110    12.827215
  11 C      7.932031    -1.820230     0.133560    12.977984
  12 C      6.904610    -2.595910     0.683900    12.746828
  13 C      5.614000    -2.106470     0.806340    13.259049
  14 H      2.511090     2.161990    -0.115830     1.724573
  15 H      3.403360     4.219520    -1.157730     1.685651
  16 H      5.773460     4.383500    -1.818820     1.695043
  17 H      7.318561     2.485350    -1.436470     1.677061
  18 H      8.474261     0.064020    -0.748870     1.675864
  19 H      8.930091    -2.234660     0.054340     1.694697
  20 H      7.120581    -3.603750     1.019970     1.677145
  21 H      4.821660    -2.715440     1.224150     1.745273
  22 C      2.810190    -0.971760     2.157210    13.001731
  23 C      2.934880    -0.546080     0.837930    11.331662
  24 C      1.831950    -0.560940    -0.008790    13.298464
  25 C      0.587770    -0.988420     0.453220    11.857786
  26 C      0.474430    -1.424330     1.774900    12.941629
  27 C      1.579240    -1.420140     2.614870    12.583706
  28 H      3.672900    -0.941540     2.811930     1.651685
  29 H      1.948360    -0.218760    -1.030930     1.750682
  30 H     -0.479690    -1.787290     2.139780     1.690247
  31 H      1.479180    -1.762560     3.638230     1.650308
  32 C     -0.587720    -0.988430    -0.453220    11.858231
  33 C     -0.474400    -1.424420    -1.774880    12.941930
  34 C     -1.579210    -1.420250    -2.614850    12.572764
  35 C     -2.810140    -0.971820    -2.157220    13.003541
  36 C     -2.934820    -0.546060    -0.837950    11.332777
  37 C     -1.831890    -0.560900     0.008760    13.298422
  38 H      0.479720    -1.787420    -2.139740     1.690729
  39 H     -1.479150    -1.762730    -3.638190     1.651100
  40 H     -3.672850    -0.941610    -2.811930     1.651757
  41 H     -1.948300    -0.218660     1.030880     1.750766
  42 N     -4.182930    -0.086790    -0.355140    12.147163
  43 C     -4.425700     1.159150     0.213780    11.535947
  44 C     -5.784530     1.241880     0.572850    12.338257
  45 C     -6.391130    -0.018330     0.202060    12.318646
  46 C     -5.372360    -0.807480    -0.365090    11.560778
  47 C     -3.551240     2.225380     0.410730    13.254015
  48 C     -4.062120     3.374890     0.991770    12.736951
  49 C     -5.408090     3.469690     1.365400    12.978453
  50 C     -6.273870     2.409400     1.155230    12.818993
  51 C     -7.680871    -0.533730     0.314070    12.824457
  52 C     -7.932011    -1.820060    -0.133530    12.984788
  53 C     -6.904610    -2.595790    -0.683820    12.745334
  54 C     -5.613980    -2.106390    -0.806280    13.258991
  55 H     -2.510980     2.162050     0.115650     1.724575
  56 H     -3.403200     4.219660     1.157430     1.678287
  57 H     -5.773300     4.383730     1.818490     1.695231
  58 H     -7.318441     2.485600     1.436260     1.676700
  59 H     -8.474201     0.064250     0.748790     1.676088
  60 H     -8.930081    -2.234460    -0.054290     1.694036
  61 H     -7.120601    -3.603640    -1.019830     1.677153
  62 H     -4.821650    -2.715400    -1.224050     1.745408
