   62
Nonperiodic system
N       4.182990    -0.086860     0.355090    70.642907
C       4.425790     1.159030    -0.213910    76.229463
C       5.784620     1.241710    -0.572990    83.214244
C       6.391190    -0.018490    -0.202120    83.044189
C       5.372410    -0.807580     0.365080    76.509177
C       3.551350     2.225280    -0.410920    89.356410
C       4.062260     3.374740    -0.992030    83.933691
C       5.408230     3.469490    -1.365670    86.397440
C       6.273980     2.409180    -1.155440    84.738394
C       7.680921    -0.533920    -0.314110    84.939733
C       7.932031    -1.820230     0.133560    86.199397
C       6.904610    -2.595910     0.683900    84.119617
C       5.614000    -2.106470     0.806340    89.594151
H       2.511090     2.161990    -0.115830     9.599696
H       3.403360     4.219520    -1.157730     8.481522
H       5.773460     4.383500    -1.818820     8.659677
H       7.318561     2.485350    -1.436470     8.780703
H       8.474261     0.064020    -0.748870     8.766225
H       8.930091    -2.234660     0.054340     8.670120
H       7.120581    -3.603750     1.019970     8.464565
H       4.821660    -2.715440     1.224150     9.829860
C       2.810190    -0.971760     2.157210    86.193415
C       2.934880    -0.546080     0.837930    74.876056
C       1.831950    -0.560940    -0.008790    92.135419
C       0.587770    -0.988420     0.453220    79.802372
C       0.474430    -1.424330     1.774900    85.974467
C       1.579240    -1.420140     2.614870    81.647719
H       3.672900    -0.941540     2.811930     8.871202
H       1.948360    -0.218760    -1.030930    10.451008
H      -0.479690    -1.787290     2.139780     9.000463
H       1.479180    -1.762560     3.638230     8.127261
C      -0.587720    -0.988430    -0.453220    79.818200
C      -0.474400    -1.424420    -1.774880    85.996494
C      -1.579210    -1.420250    -2.614850    81.286221
C      -2.810140    -0.971820    -2.157220    86.236892
C      -2.934820    -0.546060    -0.837950    74.888355
C      -1.831890    -0.560900     0.008760    92.134982
H       0.479720    -1.787420    -2.139740     9.006683
H      -1.479150    -1.762730    -3.638190     8.142775
H      -3.672850    -0.941610    -2.811930     8.873912
H      -1.948300    -0.218660     1.030880    10.451204
N      -4.182930    -0.086790    -0.355140    70.643653
C      -4.425700     1.159150     0.213780    76.235641
C      -5.784530     1.241880     0.572850    83.203152
C      -6.391130    -0.018330     0.202060    83.064061
C      -5.372360    -0.807480    -0.365090    76.514401
C      -3.551240     2.225380     0.410730    89.379268
C      -4.062120     3.374890     0.991770    84.016546
C      -5.408090     3.469690     1.365400    86.384862
C      -6.273870     2.409400     1.155230    84.774736
C      -7.680871    -0.533730     0.314070    84.891435
C      -7.932011    -1.820060    -0.133530    86.428944
C      -6.904610    -2.595790    -0.683820    84.095277
C      -5.613980    -2.106390    -0.806280    89.590654
H      -2.510980     2.162050     0.115650     9.601192
H      -3.403200     4.219660     1.157430     8.452617
H      -5.773300     4.383730     1.818490     8.662773
H      -7.318441     2.485600     1.436260     8.777620
H      -8.474201     0.064250     0.748790     8.766085
H      -8.930081    -2.234460    -0.054290     8.657933
H      -7.120601    -3.603640    -1.019830     8.462185
H      -4.821650    -2.715400    -1.224050     9.832111
  
Same information as above printed with atom number.
   1 N      4.182990    -0.086860     0.355090    70.642907
   2 C      4.425790     1.159030    -0.213910    76.229463
   3 C      5.784620     1.241710    -0.572990    83.214244
   4 C      6.391190    -0.018490    -0.202120    83.044189
   5 C      5.372410    -0.807580     0.365080    76.509177
   6 C      3.551350     2.225280    -0.410920    89.356410
   7 C      4.062260     3.374740    -0.992030    83.933691
   8 C      5.408230     3.469490    -1.365670    86.397440
   9 C      6.273980     2.409180    -1.155440    84.738394
  10 C      7.680921    -0.533920    -0.314110    84.939733
  11 C      7.932031    -1.820230     0.133560    86.199397
  12 C      6.904610    -2.595910     0.683900    84.119617
  13 C      5.614000    -2.106470     0.806340    89.594151
  14 H      2.511090     2.161990    -0.115830     9.599696
  15 H      3.403360     4.219520    -1.157730     8.481522
  16 H      5.773460     4.383500    -1.818820     8.659677
  17 H      7.318561     2.485350    -1.436470     8.780703
  18 H      8.474261     0.064020    -0.748870     8.766225
  19 H      8.930091    -2.234660     0.054340     8.670120
  20 H      7.120581    -3.603750     1.019970     8.464565
  21 H      4.821660    -2.715440     1.224150     9.829860
  22 C      2.810190    -0.971760     2.157210    86.193415
  23 C      2.934880    -0.546080     0.837930    74.876056
  24 C      1.831950    -0.560940    -0.008790    92.135419
  25 C      0.587770    -0.988420     0.453220    79.802372
  26 C      0.474430    -1.424330     1.774900    85.974467
  27 C      1.579240    -1.420140     2.614870    81.647719
  28 H      3.672900    -0.941540     2.811930     8.871202
  29 H      1.948360    -0.218760    -1.030930    10.451008
  30 H     -0.479690    -1.787290     2.139780     9.000463
  31 H      1.479180    -1.762560     3.638230     8.127261
  32 C     -0.587720    -0.988430    -0.453220    79.818200
  33 C     -0.474400    -1.424420    -1.774880    85.996494
  34 C     -1.579210    -1.420250    -2.614850    81.286221
  35 C     -2.810140    -0.971820    -2.157220    86.236892
  36 C     -2.934820    -0.546060    -0.837950    74.888355
  37 C     -1.831890    -0.560900     0.008760    92.134982
  38 H      0.479720    -1.787420    -2.139740     9.006683
  39 H     -1.479150    -1.762730    -3.638190     8.142775
  40 H     -3.672850    -0.941610    -2.811930     8.873912
  41 H     -1.948300    -0.218660     1.030880    10.451204
  42 N     -4.182930    -0.086790    -0.355140    70.643653
  43 C     -4.425700     1.159150     0.213780    76.235641
  44 C     -5.784530     1.241880     0.572850    83.203152
  45 C     -6.391130    -0.018330     0.202060    83.064061
  46 C     -5.372360    -0.807480    -0.365090    76.514401
  47 C     -3.551240     2.225380     0.410730    89.379268
  48 C     -4.062120     3.374890     0.991770    84.016546
  49 C     -5.408090     3.469690     1.365400    86.384862
  50 C     -6.273870     2.409400     1.155230    84.774736
  51 C     -7.680871    -0.533730     0.314070    84.891435
  52 C     -7.932011    -1.820060    -0.133530    86.428944
  53 C     -6.904610    -2.595790    -0.683820    84.095277
  54 C     -5.613980    -2.106390    -0.806280    89.590654
  55 H     -2.510980     2.162050     0.115650     9.601192
  56 H     -3.403200     4.219660     1.157430     8.452617
  57 H     -5.773300     4.383730     1.818490     8.662773
  58 H     -7.318441     2.485600     1.436260     8.777620
  59 H     -8.474201     0.064250     0.748790     8.766085
  60 H     -8.930081    -2.234460    -0.054290     8.657933
  61 H     -7.120601    -3.603640    -1.019830     8.462185
  62 H     -4.821650    -2.715400    -1.224050     9.832111
