   85
Nonperiodic system
N      -0.006448     0.001200     0.173052    27.386300
C      -1.415810    -0.094408     0.179300    26.634708
C      -2.190094     0.767581    -0.598914    30.737502
C      -3.571413     0.675395    -0.585370    30.399432
C      -4.225019    -0.283710     0.192996    28.443141
C      -3.440850    -1.142249     0.969272    30.062940
C      -2.060076    -1.050484     0.967213    30.771458
H      -1.702019     1.508569    -1.220875     3.497982
H      -4.149925     1.340625    -1.217201     3.793151
H      -3.923241    -1.871288     1.610516     3.524351
H      -1.470779    -1.716535     1.586344     3.533716
C       0.615652     1.269623     0.174225    26.629805
C       1.742785     1.508936    -0.613393    30.681719
C       2.354750     2.750747    -0.603787    30.460061
C       1.858324     3.795905     0.179917    28.468507
C       0.728545     3.546613     0.964864    29.997620
C       0.116613     2.305400     0.966683    30.828594
H       2.134583     0.715900    -1.239239     3.506783
H       3.215017     2.919023    -1.242547     3.784183
H       0.344241     4.328772     1.609781     3.529151
H      -0.750131     2.128037     1.592429     3.530024
C       0.781584    -1.171300     0.172523    26.625417
C       1.933396    -1.253581     0.957653    30.805404
C       2.704386    -2.402721     0.953118    30.022697
C       2.352284    -3.508033     0.172808    28.461181
C       1.193112    -3.419283    -0.602666    30.379517
C       0.421561    -2.269756    -0.609691    30.721535
H       2.216126    -0.412528     1.579691     3.532664
H       3.578481    -2.457857     1.592108     3.527632
H       0.905702    -4.250466    -1.237448     3.798033
H      -0.465553    -2.215687    -1.229547     3.500843
C      -5.687673    -0.409088     0.201012    30.343767
C      -6.436447    -1.544492     0.339419    31.228729
S      -6.718306     0.976493     0.030893    68.583773
C      -7.834010    -1.305183     0.309527    31.259920
H      -5.995462    -2.527604     0.440843     3.341741
C      -8.156635     0.012774     0.146298    30.283677
H      -8.580909    -2.080220     0.422294     3.331331
C      -9.495076     0.615274     0.064352    28.348272
C      -9.758321     1.883694     0.589267    30.777748
C     -10.540829    -0.088724    -0.540578    30.431935
C     -11.031336     2.430785     0.512397    29.467327
H      -8.964199     2.437771     1.077935     3.891054
C     -11.815221     0.455404    -0.605859    29.634489
H     -10.344261    -1.060483    -0.979267     3.600331
C     -12.065617     1.718108    -0.081657    29.782486
H     -11.217347     3.414947     0.927153     3.376099
H     -12.613648    -0.104365    -1.079738     3.392403
H     -13.060195     2.145151    -0.138524     3.439969
C       2.483646     5.124111     0.185078    30.335600
C       1.878808     6.341620     0.329055    31.233130
S       4.198325     5.319743     0.003595    68.564710
C       2.787402     7.429982     0.294478    31.202715
H       0.807915     6.453882     0.437922     3.345920
C       4.088023     7.047423     0.122066    30.402573
H       2.492954     8.464921     0.410565     3.335696
C       5.280828     7.902161     0.034108    28.299766
C       6.513670     7.490123     0.547980    30.786221
C       5.193391     9.162461    -0.565150    30.451511
C       7.625974     8.315840     0.466033    29.428912
H       6.597280     6.523110     1.032052     3.898653
C       6.303918     9.990880    -0.635424    29.600992
H       4.251287     9.482925    -0.995442     3.596909
C       7.525325     9.570596    -0.122160    29.799036
H       8.573380     7.980143     0.872152     3.380384
H       6.217701    10.964441    -1.104613     3.397287
H       8.393935    10.216048    -0.182879     3.438931
C       3.193291    -4.711303     0.173344    30.358279
C       4.551536    -4.791525     0.305856    31.261687
S       2.509129    -6.296513    -0.000102    68.572240
C       5.044006    -6.120974     0.268732    31.159676
H       5.182137    -3.917912     0.407955     3.343457
C       4.064042    -7.059518     0.105932    30.347731
H       6.089344    -6.379862     0.376071     3.338640
C       4.212090    -8.519485     0.018087    28.318725
C       3.247302    -9.384110     0.542795    30.784791
C       5.342998    -9.070485    -0.592248    30.484163
C       3.410401   -10.759726     0.460463    29.441238
H       2.371595    -8.975801     1.035570     3.891936
C       5.509433   -10.445878    -0.662977    29.542127
H       6.084684    -8.412480    -1.030834     3.599276
C       4.543136   -11.296479    -0.138895    29.842081
H       2.652615   -11.414720     0.875148     3.377863
H       6.392246   -10.855267    -1.140916     3.399306
H       4.670961   -12.371052    -0.199979     3.438000
  
Same information as above printed with atom number.
   1 N     -0.006448     0.001200     0.173052    27.386300
   2 C     -1.415810    -0.094408     0.179300    26.634708
   3 C     -2.190094     0.767581    -0.598914    30.737502
   4 C     -3.571413     0.675395    -0.585370    30.399432
   5 C     -4.225019    -0.283710     0.192996    28.443141
   6 C     -3.440850    -1.142249     0.969272    30.062940
   7 C     -2.060076    -1.050484     0.967213    30.771458
   8 H     -1.702019     1.508569    -1.220875     3.497982
   9 H     -4.149925     1.340625    -1.217201     3.793151
  10 H     -3.923241    -1.871288     1.610516     3.524351
  11 H     -1.470779    -1.716535     1.586344     3.533716
  12 C      0.615652     1.269623     0.174225    26.629805
  13 C      1.742785     1.508936    -0.613393    30.681719
  14 C      2.354750     2.750747    -0.603787    30.460061
  15 C      1.858324     3.795905     0.179917    28.468507
  16 C      0.728545     3.546613     0.964864    29.997620
  17 C      0.116613     2.305400     0.966683    30.828594
  18 H      2.134583     0.715900    -1.239239     3.506783
  19 H      3.215017     2.919023    -1.242547     3.784183
  20 H      0.344241     4.328772     1.609781     3.529151
  21 H     -0.750131     2.128037     1.592429     3.530024
  22 C      0.781584    -1.171300     0.172523    26.625417
  23 C      1.933396    -1.253581     0.957653    30.805404
  24 C      2.704386    -2.402721     0.953118    30.022697
  25 C      2.352284    -3.508033     0.172808    28.461181
  26 C      1.193112    -3.419283    -0.602666    30.379517
  27 C      0.421561    -2.269756    -0.609691    30.721535
  28 H      2.216126    -0.412528     1.579691     3.532664
  29 H      3.578481    -2.457857     1.592108     3.527632
  30 H      0.905702    -4.250466    -1.237448     3.798033
  31 H     -0.465553    -2.215687    -1.229547     3.500843
  32 C     -5.687673    -0.409088     0.201012    30.343767
  33 C     -6.436447    -1.544492     0.339419    31.228729
  34 S     -6.718306     0.976493     0.030893    68.583773
  35 C     -7.834010    -1.305183     0.309527    31.259920
  36 H     -5.995462    -2.527604     0.440843     3.341741
  37 C     -8.156635     0.012774     0.146298    30.283677
  38 H     -8.580909    -2.080220     0.422294     3.331331
  39 C     -9.495076     0.615274     0.064352    28.348272
  40 C     -9.758321     1.883694     0.589267    30.777748
  41 C    -10.540829    -0.088724    -0.540578    30.431935
  42 C    -11.031336     2.430785     0.512397    29.467327
  43 H     -8.964199     2.437771     1.077935     3.891054
  44 C    -11.815221     0.455404    -0.605859    29.634489
  45 H    -10.344261    -1.060483    -0.979267     3.600331
  46 C    -12.065617     1.718108    -0.081657    29.782486
  47 H    -11.217347     3.414947     0.927153     3.376099
  48 H    -12.613648    -0.104365    -1.079738     3.392403
  49 H    -13.060195     2.145151    -0.138524     3.439969
  50 C      2.483646     5.124111     0.185078    30.335600
  51 C      1.878808     6.341620     0.329055    31.233130
  52 S      4.198325     5.319743     0.003595    68.564710
  53 C      2.787402     7.429982     0.294478    31.202715
  54 H      0.807915     6.453882     0.437922     3.345920
  55 C      4.088023     7.047423     0.122066    30.402573
  56 H      2.492954     8.464921     0.410565     3.335696
  57 C      5.280828     7.902161     0.034108    28.299766
  58 C      6.513670     7.490123     0.547980    30.786221
  59 C      5.193391     9.162461    -0.565150    30.451511
  60 C      7.625974     8.315840     0.466033    29.428912
  61 H      6.597280     6.523110     1.032052     3.898653
  62 C      6.303918     9.990880    -0.635424    29.600992
  63 H      4.251287     9.482925    -0.995442     3.596909
  64 C      7.525325     9.570596    -0.122160    29.799036
  65 H      8.573380     7.980143     0.872152     3.380384
  66 H      6.217701    10.964441    -1.104613     3.397287
  67 H      8.393935    10.216048    -0.182879     3.438931
  68 C      3.193291    -4.711303     0.173344    30.358279
  69 C      4.551536    -4.791525     0.305856    31.261687
  70 S      2.509129    -6.296513    -0.000102    68.572240
  71 C      5.044006    -6.120974     0.268732    31.159676
  72 H      5.182137    -3.917912     0.407955     3.343457
  73 C      4.064042    -7.059518     0.105932    30.347731
  74 H      6.089344    -6.379862     0.376071     3.338640
  75 C      4.212090    -8.519485     0.018087    28.318725
  76 C      3.247302    -9.384110     0.542795    30.784791
  77 C      5.342998    -9.070485    -0.592248    30.484163
  78 C      3.410401   -10.759726     0.460463    29.441238
  79 H      2.371595    -8.975801     1.035570     3.891936
  80 C      5.509433   -10.445878    -0.662977    29.542127
  81 H      6.084684    -8.412480    -1.030834     3.599276
  82 C      4.543136   -11.296479    -0.138895    29.842081
  83 H      2.652615   -11.414720     0.875148     3.377863
  84 H      6.392246   -10.855267    -1.140916     3.399306
  85 H      4.670961   -12.371052    -0.199979     3.438000
