   85
Nonperiodic system
N      -0.006448     0.001200     0.173052    12.497816
C      -1.415810    -0.094408     0.179300    11.416415
C      -2.190094     0.767581    -0.598914    13.061379
C      -3.571413     0.675395    -0.585370    12.874520
C      -4.225019    -0.283710     0.192996    12.043111
C      -3.440850    -1.142249     0.969272    12.803927
C      -2.060076    -1.050484     0.967213    13.072564
H      -1.702019     1.508569    -1.220875     1.681424
H      -4.149925     1.340625    -1.217201     1.757739
H      -3.923241    -1.871288     1.610516     1.703068
H      -1.470779    -1.716535     1.586344     1.690161
C       0.615652     1.269623     0.174225    11.412716
C       1.742785     1.508936    -0.613393    13.046727
C       2.354750     2.750747    -0.603787    12.893884
C       1.858324     3.795905     0.179917    12.048024
C       0.728545     3.546613     0.964864    12.786293
C       0.116613     2.305400     0.966683    13.089978
H       2.134583     0.715900    -1.239239     1.684357
H       3.215017     2.919023    -1.242547     1.749136
H       0.344241     4.328772     1.609781     1.702810
H      -0.750131     2.128037     1.592429     1.689331
C       0.781584    -1.171300     0.172523    11.413278
C       1.933396    -1.253581     0.957653    13.083343
C       2.704386    -2.402721     0.953118    12.793972
C       2.352284    -3.508033     0.172808    12.046302
C       1.193112    -3.419283    -0.602666    12.868743
C       0.421561    -2.269756    -0.609691    13.057669
H       2.216126    -0.412528     1.579691     1.690073
H       3.578481    -2.457857     1.592108     1.703391
H       0.905702    -4.250466    -1.237448     1.760507
H      -0.465553    -2.215687    -1.229547     1.682071
C      -5.687673    -0.409088     0.201012    12.611207
C      -6.436447    -1.544492     0.339419    13.188913
S      -6.718306     0.976493     0.030893    27.511407
C      -7.834010    -1.305183     0.309527    13.195926
H      -5.995462    -2.527604     0.440843     1.639208
C      -8.156635     0.012774     0.146298    12.591624
H      -8.580909    -2.080220     0.422294     1.636530
C      -9.495076     0.615274     0.064352    11.985033
C      -9.758321     1.883694     0.589267    12.983040
C     -10.540829    -0.088724    -0.540578    12.913826
C     -11.031336     2.430785     0.512397    12.644222
H      -8.964199     2.437771     1.077935     1.785883
C     -11.815221     0.455404    -0.605859    12.694823
H     -10.344261    -1.060483    -0.979267     1.719373
C     -12.065617     1.718108    -0.081657    12.737184
H     -11.217347     3.414947     0.927153     1.676238
H     -12.613648    -0.104365    -1.079738     1.676139
H     -13.060195     2.145151    -0.138524     1.690027
C       2.483646     5.124111     0.185078    12.607421
C       1.878808     6.341620     0.329055    13.192444
S       4.198325     5.319743     0.003595    27.502072
C       2.787402     7.429982     0.294478    13.178476
H       0.807915     6.453882     0.437922     1.640575
C       4.088023     7.047423     0.122066    12.625217
H       2.492954     8.464921     0.410565     1.637654
C       5.280828     7.902161     0.034108    11.963953
C       6.513670     7.490123     0.547980    12.985075
C       5.193391     9.162461    -0.565150    12.921036
C       7.625974     8.315840     0.466033    12.631409
H       6.597280     6.523110     1.032052     1.787817
C       6.303918     9.990880    -0.635424    12.685760
H       4.251287     9.482925    -0.995442     1.718624
C       7.525325     9.570596    -0.122160    12.747229
H       8.573380     7.980143     0.872152     1.677955
H       6.217701    10.964441    -1.104613     1.677583
H       8.393935    10.216048    -0.182879     1.689749
C       3.193291    -4.711303     0.173344    12.611545
C       4.551536    -4.791525     0.305856    13.197174
S       2.509129    -6.296513    -0.000102    27.502159
C       5.044006    -6.120974     0.268732    13.166332
H       5.182137    -3.917912     0.407955     1.642095
C       4.064042    -7.059518     0.105932    12.607192
H       6.089344    -6.379862     0.376071     1.638974
C       4.212090    -8.519485     0.018087    11.977718
C       3.247302    -9.384110     0.542795    12.984759
C       5.342998    -9.070485    -0.592248    12.928021
C       3.410401   -10.759726     0.460463    12.637413
H       2.371595    -8.975801     1.035570     1.786004
C       5.509433   -10.445878    -0.662977    12.668952
H       6.084684    -8.412480    -1.030834     1.718988
C       4.543136   -11.296479    -0.138895    12.754565
H       2.652615   -11.414720     0.875148     1.675798
H       6.392246   -10.855267    -1.140916     1.678584
H       4.670961   -12.371052    -0.199979     1.689554
  
Same information as above printed with atom number.
   1 N     -0.006448     0.001200     0.173052    12.497816
   2 C     -1.415810    -0.094408     0.179300    11.416415
   3 C     -2.190094     0.767581    -0.598914    13.061379
   4 C     -3.571413     0.675395    -0.585370    12.874520
   5 C     -4.225019    -0.283710     0.192996    12.043111
   6 C     -3.440850    -1.142249     0.969272    12.803927
   7 C     -2.060076    -1.050484     0.967213    13.072564
   8 H     -1.702019     1.508569    -1.220875     1.681424
   9 H     -4.149925     1.340625    -1.217201     1.757739
  10 H     -3.923241    -1.871288     1.610516     1.703068
  11 H     -1.470779    -1.716535     1.586344     1.690161
  12 C      0.615652     1.269623     0.174225    11.412716
  13 C      1.742785     1.508936    -0.613393    13.046727
  14 C      2.354750     2.750747    -0.603787    12.893884
  15 C      1.858324     3.795905     0.179917    12.048024
  16 C      0.728545     3.546613     0.964864    12.786293
  17 C      0.116613     2.305400     0.966683    13.089978
  18 H      2.134583     0.715900    -1.239239     1.684357
  19 H      3.215017     2.919023    -1.242547     1.749136
  20 H      0.344241     4.328772     1.609781     1.702810
  21 H     -0.750131     2.128037     1.592429     1.689331
  22 C      0.781584    -1.171300     0.172523    11.413278
  23 C      1.933396    -1.253581     0.957653    13.083343
  24 C      2.704386    -2.402721     0.953118    12.793972
  25 C      2.352284    -3.508033     0.172808    12.046302
  26 C      1.193112    -3.419283    -0.602666    12.868743
  27 C      0.421561    -2.269756    -0.609691    13.057669
  28 H      2.216126    -0.412528     1.579691     1.690073
  29 H      3.578481    -2.457857     1.592108     1.703391
  30 H      0.905702    -4.250466    -1.237448     1.760507
  31 H     -0.465553    -2.215687    -1.229547     1.682071
  32 C     -5.687673    -0.409088     0.201012    12.611207
  33 C     -6.436447    -1.544492     0.339419    13.188913
  34 S     -6.718306     0.976493     0.030893    27.511407
  35 C     -7.834010    -1.305183     0.309527    13.195926
  36 H     -5.995462    -2.527604     0.440843     1.639208
  37 C     -8.156635     0.012774     0.146298    12.591624
  38 H     -8.580909    -2.080220     0.422294     1.636530
  39 C     -9.495076     0.615274     0.064352    11.985033
  40 C     -9.758321     1.883694     0.589267    12.983040
  41 C    -10.540829    -0.088724    -0.540578    12.913826
  42 C    -11.031336     2.430785     0.512397    12.644222
  43 H     -8.964199     2.437771     1.077935     1.785883
  44 C    -11.815221     0.455404    -0.605859    12.694823
  45 H    -10.344261    -1.060483    -0.979267     1.719373
  46 C    -12.065617     1.718108    -0.081657    12.737184
  47 H    -11.217347     3.414947     0.927153     1.676238
  48 H    -12.613648    -0.104365    -1.079738     1.676139
  49 H    -13.060195     2.145151    -0.138524     1.690027
  50 C      2.483646     5.124111     0.185078    12.607421
  51 C      1.878808     6.341620     0.329055    13.192444
  52 S      4.198325     5.319743     0.003595    27.502072
  53 C      2.787402     7.429982     0.294478    13.178476
  54 H      0.807915     6.453882     0.437922     1.640575
  55 C      4.088023     7.047423     0.122066    12.625217
  56 H      2.492954     8.464921     0.410565     1.637654
  57 C      5.280828     7.902161     0.034108    11.963953
  58 C      6.513670     7.490123     0.547980    12.985075
  59 C      5.193391     9.162461    -0.565150    12.921036
  60 C      7.625974     8.315840     0.466033    12.631409
  61 H      6.597280     6.523110     1.032052     1.787817
  62 C      6.303918     9.990880    -0.635424    12.685760
  63 H      4.251287     9.482925    -0.995442     1.718624
  64 C      7.525325     9.570596    -0.122160    12.747229
  65 H      8.573380     7.980143     0.872152     1.677955
  66 H      6.217701    10.964441    -1.104613     1.677583
  67 H      8.393935    10.216048    -0.182879     1.689749
  68 C      3.193291    -4.711303     0.173344    12.611545
  69 C      4.551536    -4.791525     0.305856    13.197174
  70 S      2.509129    -6.296513    -0.000102    27.502159
  71 C      5.044006    -6.120974     0.268732    13.166332
  72 H      5.182137    -3.917912     0.407955     1.642095
  73 C      4.064042    -7.059518     0.105932    12.607192
  74 H      6.089344    -6.379862     0.376071     1.638974
  75 C      4.212090    -8.519485     0.018087    11.977718
  76 C      3.247302    -9.384110     0.542795    12.984759
  77 C      5.342998    -9.070485    -0.592248    12.928021
  78 C      3.410401   -10.759726     0.460463    12.637413
  79 H      2.371595    -8.975801     1.035570     1.786004
  80 C      5.509433   -10.445878    -0.662977    12.668952
  81 H      6.084684    -8.412480    -1.030834     1.718988
  82 C      4.543136   -11.296479    -0.138895    12.754565
  83 H      2.652615   -11.414720     0.875148     1.675798
  84 H      6.392246   -10.855267    -1.140916     1.678584
  85 H      4.670961   -12.371052    -0.199979     1.689554
