  129
Nonperiodic system
C      -0.000010    -0.000003     0.000040    11.824639
C      -0.826953     0.837677    -0.960820    12.019126
C      -0.514044     0.522722    -2.285980    12.095460
C       0.515297    -0.522641    -2.285715    12.092835
C       0.827472    -0.837650    -0.960393    12.020076
C      -1.773995     1.789341    -0.646661    13.385663
C      -2.416129     2.467677    -1.685826    11.428893
C      -2.099663     2.162763    -3.014734    13.168601
C      -1.161169     1.187280    -3.320104    12.797035
C       1.162997    -1.187157    -3.319506    12.800439
C       2.101325    -2.162651    -3.013653    13.168390
C       2.417045    -2.467621    -1.684583    11.430988
C       1.774341    -1.789323    -0.645747    13.383625
H      -2.013206     2.017040     0.386313     1.760132
H      -2.603735     2.699874    -3.809496     1.694240
H      -0.930572     0.965565    -4.356290     1.677758
H       0.932978    -0.965398    -4.355811     1.676609
H       2.605853    -2.699720    -3.808153     1.694099
H       2.012987    -2.017063     0.387349     1.760160
C       0.827010     0.837552     0.960939    12.019366
C       0.514046     0.522593     2.286085    12.095903
C      -0.515398    -0.522669     2.285772    12.093230
C      -0.827583    -0.837601     0.960434    12.019847
C       1.774144     1.789134     0.646821    13.386659
C       2.416311     2.467391     1.686013    11.429707
C       2.099791     2.162482     3.014910    13.168807
C       1.161214     1.187065     3.320239    12.795513
C      -1.163172    -1.187169     3.319528    12.800586
C      -2.101560    -2.162590     3.013622    13.167529
C      -2.417286    -2.467473     1.684534    11.430719
C      -1.774524    -1.789180     0.645736    13.384886
H       2.013377     2.016858    -0.386142     1.759677
H       2.603872     2.699553     3.809693     1.694212
H       0.930570     0.965352     4.356415     1.678054
H      -0.933141    -0.965479     4.355845     1.676652
H      -2.606113    -2.699684     3.808090     1.694188
H      -2.013148    -2.016888    -0.387373     1.760016
N      -3.382373     3.459594    -1.396807    12.508278
C      -3.156911     4.384264    -0.353350    11.369640
C      -1.879030     4.905733    -0.133211    13.324556
C      -1.660657     5.809431     0.896532    12.711052
C      -2.708146     6.220294     1.712626    12.850090
C      -3.979922     5.706264     1.492229    12.633184
C      -4.205540     4.789063     0.475833    13.159856
H      -1.059472     4.590064    -0.768857     1.877323
H      -0.663868     6.207105     1.054664     1.762770
H      -2.533770     6.930976     2.511599     1.693594
H      -4.806095     6.009908     2.125427     1.685636
H      -5.197638     4.383701     0.316304     1.723607
C      -4.587292     3.497186    -2.137210    11.427356
C      -5.118178     4.715694    -2.564903    13.160577
C      -6.302828     4.745759    -3.286243    12.678223
C      -6.963354     3.566000    -3.609056    12.879795
C      -6.430225     2.351760    -3.192943    12.652531
C      -5.256551     2.313558    -2.454027    13.120566
H      -4.598766     5.635601    -2.323066     1.700310
H      -6.704248     5.699451    -3.610232     1.673609
H      -7.884166     3.592765    -4.179694     1.700510
H      -6.937849     1.424289    -3.433116     1.681011
H      -4.847321     1.366539    -2.121923     1.705998
N       3.383178    -3.459507    -1.395076    12.518714
C       4.588508    -3.496934    -2.134834    11.426398
C       5.257902    -2.313230    -2.451053    13.137540
C       6.431973    -2.351260    -3.189352    12.653459
C       6.965342    -3.565409    -3.605418    12.885200
C       6.304668    -4.745250    -3.283199    12.670707
C       5.119631    -4.715349    -2.562491    13.166832
H       4.848463    -1.366290    -2.118977     1.697230
H       6.939709    -1.423734    -3.429073     1.681379
H       7.886460    -3.592045    -4.175570     1.700151
H       6.706282    -5.698866    -3.607170     1.674428
H       4.600095    -5.635307    -2.321112     1.700053
C       3.157225    -4.384277    -0.351830    11.364976
C       4.205491    -4.789241     0.477741    13.170344
C       3.979404    -5.706550     1.493933    12.638826
C       2.707513    -6.220549     1.713744    12.841280
C       1.660391    -5.809546     0.897251    12.716728
C       1.879234    -4.905735    -0.132293    13.328639
H       5.197678    -4.383913     0.318682     1.716049
H       4.805304    -6.010314     2.127431     1.685616
H       2.532774    -6.931320     2.512557     1.694935
H       0.663518    -6.207198     1.054916     1.762535
H       1.059957    -4.589995    -0.768265     1.876756
N       3.382548     3.459315     1.397007    12.508346
C       4.587424     3.497011     2.137475    11.426820
C       5.256729     2.313437     2.454394    13.122554
C       6.430361     2.351742     3.193373    12.651369
C       6.963402     3.566033     3.609449    12.876989
C       6.302831     4.745739     3.286534    12.677929
C       5.118223     4.715571     2.565130    13.162108
H       4.847570     1.366377     2.122319     1.705792
H       6.938021     1.424311     3.433624     1.681355
H       7.884181     3.592878     4.180137     1.701059
H       6.704182     5.699470     3.610493     1.673666
H       4.598777     5.635438     2.323214     1.700231
C       3.157049     4.383931     0.353516    11.373184
C       1.879092     4.905143     0.133240    13.319357
C       1.660626     5.808732    -0.896577    12.699022
C       2.708107     6.219752    -1.712604    12.840870
C       3.979963     5.705971    -1.492073    12.637965
C       4.205670     4.788864    -0.475612    13.173025
H       1.059541     4.589323     0.768821     1.878044
H       0.663766     6.206187    -1.054828     1.774628
H       2.533662     6.930351    -2.511634     1.694447
H       4.806129     6.009730    -2.125225     1.685501
H       5.197827     4.383681    -0.315988     1.715734
N      -3.383360    -3.459387     1.394940    12.518354
C      -4.588690    -3.496999     2.134690    11.428035
C      -5.119720    -4.715509     2.562187    13.165213
C      -6.304758    -4.745595     3.282887    12.664729
C      -6.965527    -3.565848     3.605253    12.887630
C      -6.432250    -2.351604     3.189345    12.653559
C      -5.258178    -2.313387     2.451058    13.135284
H      -4.600113    -5.635396     2.320691     1.700256
H      -6.706299    -5.699284     3.606733     1.676337
H      -7.886646    -3.592629     4.175396     1.699905
H      -6.940062    -1.424149     3.429184     1.681356
H      -4.848811    -1.366372     2.119107     1.697455
C      -3.157304    -4.383976     0.351563    11.365765
C      -4.205513    -4.789061    -0.478014    13.169154
C      -3.979246    -5.706142    -1.494375    12.642519
C      -2.707226    -6.219751    -1.714364    12.838214
C      -1.660155    -5.808595    -0.897881    12.714902
C      -1.879185    -4.905036     0.131842    13.329390
H      -5.197796    -4.384014    -0.318831     1.716117
H      -4.805103    -6.010017    -2.127874     1.685208
H      -2.532344    -6.930326    -2.513321     1.695461
H      -0.663171    -6.205912    -1.055699     1.763171
H      -1.059955    -4.589136     0.767793     1.876834
  
Same information as above printed with atom number.
   1 C     -0.000010    -0.000003     0.000040    11.824639
   2 C     -0.826953     0.837677    -0.960820    12.019126
   3 C     -0.514044     0.522722    -2.285980    12.095460
   4 C      0.515297    -0.522641    -2.285715    12.092835
   5 C      0.827472    -0.837650    -0.960393    12.020076
   6 C     -1.773995     1.789341    -0.646661    13.385663
   7 C     -2.416129     2.467677    -1.685826    11.428893
   8 C     -2.099663     2.162763    -3.014734    13.168601
   9 C     -1.161169     1.187280    -3.320104    12.797035
  10 C      1.162997    -1.187157    -3.319506    12.800439
  11 C      2.101325    -2.162651    -3.013653    13.168390
  12 C      2.417045    -2.467621    -1.684583    11.430988
  13 C      1.774341    -1.789323    -0.645747    13.383625
  14 H     -2.013206     2.017040     0.386313     1.760132
  15 H     -2.603735     2.699874    -3.809496     1.694240
  16 H     -0.930572     0.965565    -4.356290     1.677758
  17 H      0.932978    -0.965398    -4.355811     1.676609
  18 H      2.605853    -2.699720    -3.808153     1.694099
  19 H      2.012987    -2.017063     0.387349     1.760160
  20 C      0.827010     0.837552     0.960939    12.019366
  21 C      0.514046     0.522593     2.286085    12.095903
  22 C     -0.515398    -0.522669     2.285772    12.093230
  23 C     -0.827583    -0.837601     0.960434    12.019847
  24 C      1.774144     1.789134     0.646821    13.386659
  25 C      2.416311     2.467391     1.686013    11.429707
  26 C      2.099791     2.162482     3.014910    13.168807
  27 C      1.161214     1.187065     3.320239    12.795513
  28 C     -1.163172    -1.187169     3.319528    12.800586
  29 C     -2.101560    -2.162590     3.013622    13.167529
  30 C     -2.417286    -2.467473     1.684534    11.430719
  31 C     -1.774524    -1.789180     0.645736    13.384886
  32 H      2.013377     2.016858    -0.386142     1.759677
  33 H      2.603872     2.699553     3.809693     1.694212
  34 H      0.930570     0.965352     4.356415     1.678054
  35 H     -0.933141    -0.965479     4.355845     1.676652
  36 H     -2.606113    -2.699684     3.808090     1.694188
  37 H     -2.013148    -2.016888    -0.387373     1.760016
  38 N     -3.382373     3.459594    -1.396807    12.508278
  39 C     -3.156911     4.384264    -0.353350    11.369640
  40 C     -1.879030     4.905733    -0.133211    13.324556
  41 C     -1.660657     5.809431     0.896532    12.711052
  42 C     -2.708146     6.220294     1.712626    12.850090
  43 C     -3.979922     5.706264     1.492229    12.633184
  44 C     -4.205540     4.789063     0.475833    13.159856
  45 H     -1.059472     4.590064    -0.768857     1.877323
  46 H     -0.663868     6.207105     1.054664     1.762770
  47 H     -2.533770     6.930976     2.511599     1.693594
  48 H     -4.806095     6.009908     2.125427     1.685636
  49 H     -5.197638     4.383701     0.316304     1.723607
  50 C     -4.587292     3.497186    -2.137210    11.427356
  51 C     -5.118178     4.715694    -2.564903    13.160577
  52 C     -6.302828     4.745759    -3.286243    12.678223
  53 C     -6.963354     3.566000    -3.609056    12.879795
  54 C     -6.430225     2.351760    -3.192943    12.652531
  55 C     -5.256551     2.313558    -2.454027    13.120566
  56 H     -4.598766     5.635601    -2.323066     1.700310
  57 H     -6.704248     5.699451    -3.610232     1.673609
  58 H     -7.884166     3.592765    -4.179694     1.700510
  59 H     -6.937849     1.424289    -3.433116     1.681011
  60 H     -4.847321     1.366539    -2.121923     1.705998
  61 N      3.383178    -3.459507    -1.395076    12.518714
  62 C      4.588508    -3.496934    -2.134834    11.426398
  63 C      5.257902    -2.313230    -2.451053    13.137540
  64 C      6.431973    -2.351260    -3.189352    12.653459
  65 C      6.965342    -3.565409    -3.605418    12.885200
  66 C      6.304668    -4.745250    -3.283199    12.670707
  67 C      5.119631    -4.715349    -2.562491    13.166832
  68 H      4.848463    -1.366290    -2.118977     1.697230
  69 H      6.939709    -1.423734    -3.429073     1.681379
  70 H      7.886460    -3.592045    -4.175570     1.700151
  71 H      6.706282    -5.698866    -3.607170     1.674428
  72 H      4.600095    -5.635307    -2.321112     1.700053
  73 C      3.157225    -4.384277    -0.351830    11.364976
  74 C      4.205491    -4.789241     0.477741    13.170344
  75 C      3.979404    -5.706550     1.493933    12.638826
  76 C      2.707513    -6.220549     1.713744    12.841280
  77 C      1.660391    -5.809546     0.897251    12.716728
  78 C      1.879234    -4.905735    -0.132293    13.328639
  79 H      5.197678    -4.383913     0.318682     1.716049
  80 H      4.805304    -6.010314     2.127431     1.685616
  81 H      2.532774    -6.931320     2.512557     1.694935
  82 H      0.663518    -6.207198     1.054916     1.762535
  83 H      1.059957    -4.589995    -0.768265     1.876756
  84 N      3.382548     3.459315     1.397007    12.508346
  85 C      4.587424     3.497011     2.137475    11.426820
  86 C      5.256729     2.313437     2.454394    13.122554
  87 C      6.430361     2.351742     3.193373    12.651369
  88 C      6.963402     3.566033     3.609449    12.876989
  89 C      6.302831     4.745739     3.286534    12.677929
  90 C      5.118223     4.715571     2.565130    13.162108
  91 H      4.847570     1.366377     2.122319     1.705792
  92 H      6.938021     1.424311     3.433624     1.681355
  93 H      7.884181     3.592878     4.180137     1.701059
  94 H      6.704182     5.699470     3.610493     1.673666
  95 H      4.598777     5.635438     2.323214     1.700231
  96 C      3.157049     4.383931     0.353516    11.373184
  97 C      1.879092     4.905143     0.133240    13.319357
  98 C      1.660626     5.808732    -0.896577    12.699022
  99 C      2.708107     6.219752    -1.712604    12.840870
 100 C      3.979963     5.705971    -1.492073    12.637965
 101 C      4.205670     4.788864    -0.475612    13.173025
 102 H      1.059541     4.589323     0.768821     1.878044
 103 H      0.663766     6.206187    -1.054828     1.774628
 104 H      2.533662     6.930351    -2.511634     1.694447
 105 H      4.806129     6.009730    -2.125225     1.685501
 106 H      5.197827     4.383681    -0.315988     1.715734
 107 N     -3.383360    -3.459387     1.394940    12.518354
 108 C     -4.588690    -3.496999     2.134690    11.428035
 109 C     -5.119720    -4.715509     2.562187    13.165213
 110 C     -6.304758    -4.745595     3.282887    12.664729
 111 C     -6.965527    -3.565848     3.605253    12.887630
 112 C     -6.432250    -2.351604     3.189345    12.653559
 113 C     -5.258178    -2.313387     2.451058    13.135284
 114 H     -4.600113    -5.635396     2.320691     1.700256
 115 H     -6.706299    -5.699284     3.606733     1.676337
 116 H     -7.886646    -3.592629     4.175396     1.699905
 117 H     -6.940062    -1.424149     3.429184     1.681356
 118 H     -4.848811    -1.366372     2.119107     1.697455
 119 C     -3.157304    -4.383976     0.351563    11.365765
 120 C     -4.205513    -4.789061    -0.478014    13.169154
 121 C     -3.979246    -5.706142    -1.494375    12.642519
 122 C     -2.707226    -6.219751    -1.714364    12.838214
 123 C     -1.660155    -5.808595    -0.897881    12.714902
 124 C     -1.879185    -4.905036     0.131842    13.329390
 125 H     -5.197796    -4.384014    -0.318831     1.716117
 126 H     -4.805103    -6.010017    -2.127874     1.685208
 127 H     -2.532344    -6.930326    -2.513321     1.695461
 128 H     -0.663171    -6.205912    -1.055699     1.763171
 129 H     -1.059955    -4.589136     0.767793     1.876834
