   62
Nonperiodic system
N     -1.754866    -0.268777     0.012753    -0.160492
C     -0.909202    -0.251495    -1.091333     0.154043
C      0.356142     0.219672    -0.692294    -0.034930
C      0.268347     0.500630     0.724442    -0.035304
C     -1.046111     0.186889     1.119311     0.152912
C     -1.179226    -0.589882    -2.415193    -0.202216
C     -0.148491    -0.463035    -3.332579    -0.081432
C      1.119101    -0.007639    -2.950384    -0.130339
C      1.376050     0.338454    -1.634235    -0.113016
C      1.178658     0.969447     1.669531    -0.110057
C      0.768504     1.112930     2.984556    -0.130201
C     -0.539095     0.784941     3.362592    -0.081777
C     -1.462941     0.316753     2.441994    -0.201620
H     -2.160557    -0.933055    -2.719348     0.112189
H     -0.331045    -0.719842    -4.369894     0.100250
H      1.902215     0.078267    -3.694354     0.100396
H      2.354987     0.700030    -1.339507     0.106929
H      2.193968     1.214677     1.378119     0.105608
H      1.464481     1.477476     3.730796     0.100382
H     -0.836962     0.896013     4.399038     0.100452
H     -2.470195     0.055161     2.742563     0.111100
C     -3.107629    -0.680944     0.010658     0.197918
C     -3.449788    -1.956919    -0.427748    -0.166041
C     -4.778065    -2.353153    -0.439195    -0.123884
C     -5.788127    -1.497330     0.005294     0.056189
C     -5.428149    -0.224404     0.452855    -0.123621
C     -4.104466     0.187093     0.446771    -0.165411
H     -2.670099    -2.631823    -0.760863     0.125523
H     -5.035792    -3.340191    -0.806788     0.106799
H     -6.193633     0.451031     0.818366     0.106720
H     -3.834569     1.181709     0.781849     0.123319
C     -7.206995    -1.929188     0.001549     0.054955
C     -7.566222    -3.212021     0.420515    -0.125703
C     -8.889896    -3.623358     0.407208    -0.167778
C     -9.887455    -2.745629    -0.007341     0.196254
C     -9.546040    -1.459951    -0.417047    -0.167513
C     -8.217790    -1.063477    -0.421619    -0.126729
H     -6.800123    -3.895585     0.769244     0.109428
H     -9.159209    -4.625402     0.719863     0.125688
H    -10.326304    -0.777696    -0.733426     0.126344
H     -7.960678    -0.068281    -0.766966     0.109538
N    -11.240181    -3.157846    -0.012604    -0.154271
C    -12.087714    -3.149092    -1.115365     0.151129
C    -13.352349    -3.629704    -0.725417    -0.036055
C    -13.262167    -3.944045     0.684123    -0.035082
C    -11.947061    -3.639587     1.084076     0.150521
C    -11.819980    -2.779545    -2.431344    -0.200930
C    -12.852252    -2.884897    -3.349726    -0.079252
C    -14.119155    -3.349363    -2.976240    -0.128707
C    -14.373838    -3.726397    -1.668172    -0.112094
C    -14.170862    -4.435222     1.619364    -0.109201
C    -13.758515    -4.609752     2.929946    -0.132925
C    -12.450319    -4.290612     3.313442    -0.079653
C    -11.528050    -3.800641     2.402638    -0.200970
H    -10.839196    -2.429110    -2.728947     0.110641
H    -12.671485    -2.603688    -4.381010     0.099650
H    -14.903517    -3.417845    -3.720703     0.099233
H    -15.352240    -4.094956    -1.380391     0.105917
H    -15.186633    -4.673622     1.323914     0.106383
H    -14.453208    -4.991954     3.668507     0.100323
H    -12.150710    -4.426129     4.346477     0.100138
H    -10.520334    -3.546096     2.707678     0.110334
 
 Chargemol version 3.5 September 26, 2017.
See ddec.sourceforge.net for latest version.
 
Computational parameters:
Number of radial integration shells =    100
Cutoff radius (pm) =    500
Error in the integrated total number of electrons before renormalization (e) =    1.2571E-09
Charge convergence tolerance =    1.0000E-05
Minimum radius for electron cloud penetration fitting (pm) =    200
Minimum decay exponent for electron density of buried atom tails =   1.7500
Maximum decay exponent for electron density of buried atom tails =  2.5000
Number of iterations to convergence =      7
 
The following XYZ coordinates are in angstroms. The atomic dipoles and quadrupoles are in atomic units.
atom number, atomic symbol, x, y, z, net_charge, dipole_x, dipole_y, dipole_z, dipole_mag, Qxy, Qxz, Qyz,Q(x^2-y^2), Q(3z^2 - R^2), three eigenvalues of traceless quadrupole moment tensor
    1 N     -1.754866    -0.268777     0.012753    -0.160492    -0.016631    -0.004717     0.001261     0.017333     0.049899    -0.011190     0.037253     0.149571     0.142110    -0.120911     0.055520     0.065390
    2 C     -0.909202    -0.251495    -1.091333     0.154043    -0.041397    -0.004824     0.021229     0.046772     0.012286    -0.045136    -0.001059     0.072421     0.067166    -0.051321    -0.018093     0.069414
    3 C      0.356142     0.219672    -0.692294    -0.034930     0.028338     0.012050     0.003528     0.030995     0.021162     0.008585     0.023452     0.061535     0.141809    -0.065630     0.009278     0.056352
    4 C      0.268347     0.500630     0.724442    -0.035304     0.030529     0.006198    -0.004376     0.031457     0.019834    -0.021663     0.014655     0.062274     0.143871    -0.065651     0.007744     0.057907
    5 C     -1.046111     0.186889     1.119311     0.152912    -0.036698    -0.018609    -0.020961     0.046178     0.027748     0.038605     0.024600     0.050934     0.067372    -0.051010    -0.018689     0.069699
    6 C     -1.179226    -0.589882    -2.415193    -0.202216     0.017567     0.009723    -0.011360     0.023069     0.033593     0.021568     0.022145     0.103975     0.023527    -0.070148    -0.000405     0.070553
    7 C     -0.148491    -0.463035    -3.332579    -0.081432     0.004312     0.010229     0.034421     0.036167     0.018230     0.012904     0.028993     0.046805     0.185026    -0.066443    -0.006334     0.072777
    8 C      1.119101    -0.007639    -2.950384    -0.130339    -0.027244    -0.004306     0.019677     0.033881     0.027122    -0.044826     0.009635     0.108162     0.097470    -0.081898     0.000065     0.081833
    9 C      1.376050     0.338454    -1.634235    -0.113016    -0.021857    -0.005606     0.000759     0.022577     0.033435     0.016212     0.016862     0.087469    -0.004139    -0.058022    -0.005230     0.063252
   10 C      1.178658     0.969447     1.669531    -0.110057    -0.020229    -0.006820    -0.000722     0.021360     0.028346    -0.023492     0.005937     0.096109    -0.003776    -0.059257    -0.004843     0.064100
   11 C      0.768504     1.112930     2.984556    -0.130201    -0.025974    -0.012685    -0.018709     0.034432     0.040265     0.031519     0.033097     0.092093     0.098272    -0.082723     0.000717     0.082006
   12 C     -0.539095     0.784941     3.362592    -0.081777     0.007572    -0.005884    -0.034724     0.036024     0.014618    -0.025838     0.017263     0.050113     0.185975    -0.065995    -0.006467     0.072463
   13 C     -1.462941     0.316753     2.441994    -0.201620     0.017096     0.000485     0.010710     0.020180     0.034925    -0.031026     0.006668     0.102965     0.024605    -0.070759    -0.000535     0.071294
   14 H     -2.160557    -0.933055    -2.719348     0.112189    -0.042660    -0.014865    -0.023011     0.050698     0.010309     0.012214     0.011384     0.028905     0.033539    -0.025111    -0.002276     0.027387
   15 H     -0.331045    -0.719842    -4.369894     0.100250    -0.008841    -0.012116    -0.049585     0.051804     0.010478    -0.000468     0.008092     0.031191     0.044443    -0.027744     0.010659     0.017085
   16 H      1.902215     0.078267    -3.694354     0.100396     0.037013     0.004332    -0.035129     0.051213     0.011358    -0.006104     0.006653     0.036968     0.038013    -0.029667     0.010670     0.018996
   17 H      2.354987     0.700030    -1.339507     0.106929     0.044863     0.016206     0.011847     0.049150     0.011400    -0.002316     0.005650     0.034306     0.016281    -0.024627     0.006569     0.018057
   18 H      2.193968     1.214677     1.378119     0.105608     0.046799     0.011386    -0.011931     0.049620     0.011694    -0.001024     0.005967     0.034885     0.016479    -0.025017     0.006572     0.018445
   19 H      1.464481     1.477476     3.730796     0.100382     0.032872     0.017300     0.035193     0.051171     0.012619     0.001488     0.008972     0.035121     0.038374    -0.029661     0.010583     0.019078
   20 H     -0.836962     0.896013     4.399038     0.100452    -0.014335     0.004682     0.049234     0.051492     0.010294    -0.004070     0.007198     0.030997     0.044724    -0.027678     0.010520     0.017158
   21 H     -2.470195     0.055161     2.742563     0.111100    -0.044392    -0.011768     0.022619     0.051194     0.009070    -0.016563     0.002355     0.030633     0.033026    -0.024888    -0.002667     0.027555
   22 C     -3.107629    -0.680944     0.010658     0.197918     0.059932     0.019605     0.000519     0.063059     0.034797    -0.003296     0.012015     0.103023    -0.061280    -0.056084    -0.016013     0.072097
   23 C     -3.449788    -1.956919    -0.427748    -0.166041    -0.029556    -0.012789    -0.005808     0.032724    -0.031292    -0.017381     0.014514     0.006300    -0.103295    -0.041480    -0.013607     0.055087
   24 C     -4.778065    -2.353153    -0.439195    -0.123884     0.026355     0.016330     0.003654     0.031219     0.008787    -0.001890     0.033360    -0.050223    -0.104460    -0.049234    -0.007245     0.056479
   25 C     -5.788127    -1.497330     0.005294     0.056189    -0.007660    -0.001962     0.000725     0.007941     0.015838     0.003704    -0.009544     0.048291    -0.105191    -0.039230    -0.007569     0.046799
   26 C     -5.428149    -0.224404     0.452855    -0.123621     0.031639     0.002428    -0.003574     0.031933    -0.025809    -0.016749     0.029941    -0.003124    -0.099300    -0.048696    -0.007070     0.055767
   27 C     -4.104466     0.187093     0.446771    -0.165411    -0.031719    -0.003590     0.006812     0.032641     0.015313     0.006781     0.022295    -0.057799    -0.104725    -0.042160    -0.014610     0.056770
   28 H     -2.670099    -2.631823    -0.760863     0.125523     0.035472    -0.034535    -0.014747     0.051657    -0.008140    -0.002011     0.013470    -0.003167    -0.059433    -0.024921     0.003076     0.021845
   29 H     -5.035792    -3.340191    -0.806788     0.106799    -0.008388    -0.048283    -0.021114     0.053361    -0.001337    -0.001660     0.017458    -0.014084    -0.050658    -0.024629     0.001213     0.023416
   30 H     -6.193633     0.451031     0.818366     0.106720    -0.033899     0.035638     0.020557     0.053309    -0.005898    -0.008696     0.015441    -0.007348    -0.051439    -0.024997     0.001560     0.023437
   31 H     -3.834569     1.181709     0.781849     0.123319     0.010640     0.049861     0.015103     0.053174     0.001723    -0.005679     0.012705    -0.016368    -0.059146    -0.025000     0.002923     0.022077
   32 C     -7.206995    -1.929188     0.001549     0.054955     0.006567     0.001859     0.000320     0.006833     0.016492    -0.003610     0.012021     0.048715    -0.100193    -0.039554    -0.006943     0.046497
   33 C     -7.566222    -3.212021     0.420515    -0.125703    -0.033751     0.000604    -0.004179     0.034014    -0.026632     0.015159    -0.027224    -0.002680    -0.098154    -0.046248    -0.008082     0.054330
   34 C     -8.889896    -3.623358     0.407208    -0.167778     0.031091     0.005510     0.006119     0.032163     0.015341    -0.007227    -0.019515    -0.059113    -0.103289    -0.040623    -0.015319     0.055941
   35 C     -9.887455    -2.745629    -0.007341     0.196254    -0.057394    -0.017277    -0.000522     0.059941     0.034181     0.003174    -0.012077     0.102237    -0.056328    -0.055994    -0.014609     0.070602
   36 C     -9.546040    -1.459951    -0.417047    -0.167513     0.031011     0.012375    -0.005575     0.033851    -0.032457     0.016700    -0.012774     0.006094    -0.100095    -0.039737    -0.015215     0.054952
   37 C     -8.217790    -1.063477    -0.421619    -0.126729    -0.026966    -0.018437     0.004242     0.032940     0.008800     0.001841    -0.030309    -0.050621    -0.100076    -0.046072    -0.008200     0.054271
   38 H     -6.800123    -3.895585     0.769244     0.109428     0.033367    -0.035299     0.018963     0.052143    -0.005798     0.008133    -0.014550    -0.008021    -0.051807    -0.024316     0.001528     0.022789
   39 H     -9.159209    -4.625402     0.719863     0.125688    -0.009905    -0.049156     0.013715     0.051985     0.001372     0.005759    -0.011427    -0.016607    -0.060662    -0.024753     0.003053     0.021700
   40 H    -10.326304    -0.777696    -0.733426     0.126344    -0.035688     0.034840    -0.013637     0.051705    -0.007878     0.001801    -0.012745    -0.003794    -0.060215    -0.024636     0.003183     0.021452
   41 H     -7.960678    -0.068281    -0.766966     0.109538     0.008014     0.047596    -0.019070     0.051897    -0.001316     0.001819    -0.016735    -0.014254    -0.052592    -0.024606     0.001458     0.023148
   42 N    -11.240181    -3.157846    -0.012604    -0.154271     0.016424     0.004666     0.000547     0.017082     0.050415     0.011934    -0.041340     0.151056     0.137427    -0.122992     0.055890     0.067102
   43 C    -12.087714    -3.149092    -1.115365     0.151129     0.040274     0.002919     0.020983     0.045506     0.012106     0.045099    -0.000338     0.072723     0.062485    -0.051036    -0.017932     0.068968
   44 C    -13.352349    -3.629704    -0.725417    -0.036055    -0.028160    -0.011693     0.003704     0.030715     0.022621    -0.007994    -0.026096     0.059663     0.139095    -0.066202     0.009369     0.056832
   45 C    -13.262167    -3.944045     0.684123    -0.035082    -0.029975    -0.005590    -0.005297     0.030949     0.018745     0.021839    -0.016901     0.064018     0.138925    -0.065797     0.008604     0.057193
   46 C    -11.947061    -3.639587     1.084076     0.150521     0.035541     0.019353    -0.018803     0.044624     0.028560    -0.036892    -0.024672     0.049573     0.060777    -0.050136    -0.017771     0.067907
   47 C    -11.819980    -2.779545    -2.431344    -0.200930    -0.014731    -0.008781    -0.009627     0.019667     0.034880    -0.023119    -0.024400     0.101966     0.019952    -0.070146    -0.002406     0.072551
   48 C    -12.852252    -2.884897    -3.349726    -0.079252    -0.003595    -0.011115     0.034508     0.036432     0.018204    -0.012096    -0.031627     0.048173     0.184140    -0.067953    -0.005512     0.073465
   49 C    -14.119155    -3.349363    -2.976240    -0.128707     0.025968     0.002770     0.019246     0.032441     0.026339     0.046549    -0.012193     0.109009     0.100295    -0.083404    -0.000149     0.083553
   50 C    -14.373838    -3.726397    -1.668172    -0.112094     0.020292     0.005607     0.002045     0.021152     0.033717    -0.015313    -0.017932     0.086005    -0.005136    -0.057983    -0.004787     0.062770
   51 C    -14.170862    -4.435222     1.619364    -0.109201     0.022043     0.006992     0.000034     0.023126     0.028131     0.022721    -0.006009     0.094272    -0.001125    -0.058735    -0.003769     0.062504
   52 C    -13.758515    -4.609752     2.929946    -0.132925     0.025016     0.012024    -0.017810     0.032978     0.041413    -0.032498    -0.035040     0.088260     0.094468    -0.081882    -0.001591     0.083473
   53 C    -12.450319    -4.290612     3.313442    -0.079653    -0.008602     0.006543    -0.034575     0.036225     0.014899     0.026684    -0.019588     0.050084     0.178665    -0.066066    -0.005258     0.071324
   54 C    -11.528050    -3.800641     2.402638    -0.200970    -0.017060    -0.001151     0.011058     0.020363     0.035182     0.032957    -0.007500     0.102856     0.018566    -0.070650    -0.002454     0.073104
   55 H    -10.839196    -2.429110    -2.728947     0.110641     0.043577     0.015680    -0.022789     0.051616     0.010790    -0.012209    -0.012061     0.028222     0.031478    -0.025033    -0.002582     0.027615
   56 H    -12.671485    -2.603688    -4.381010     0.099650     0.009159     0.013829    -0.049388     0.052099     0.010378     0.000854    -0.008640     0.030573     0.044210    -0.027644     0.010533     0.017111
   57 H    -14.903517    -3.417845    -3.720703     0.099233    -0.037447    -0.003280    -0.035316     0.051577     0.011235     0.006424    -0.007648     0.036837     0.037378    -0.029867     0.010752     0.019114
   58 H    -15.352240    -4.094956    -1.380391     0.105917    -0.045261    -0.016868     0.011557     0.049665     0.011549     0.002312    -0.006203     0.034460     0.015079    -0.024807     0.006415     0.018392
   59 H    -15.186633    -4.673622     1.323914     0.106383    -0.046604    -0.010715    -0.011607     0.049208     0.011795     0.001440    -0.006479     0.034008     0.016218    -0.024927     0.006764     0.018164
   60 H    -14.453208    -4.991954     3.668507     0.100323    -0.033006    -0.018009     0.035142     0.051465     0.012869    -0.000951    -0.009705     0.034379     0.036403    -0.029548     0.010705     0.018843
   61 H    -12.150710    -4.426129     4.346477     0.100138     0.014333    -0.006035     0.049480     0.051866     0.010358     0.004379    -0.008139     0.030899     0.043142    -0.027828     0.010749     0.017079
   62 H    -10.520334    -3.546096     2.707678     0.110334     0.045057     0.011040     0.022837     0.051706     0.009054     0.017062    -0.003035     0.030139     0.032358    -0.024982    -0.002803     0.027785
 
The sperically averaged electron density of each atom fit to a function of the form exp(a - br) for r >=rmin_cloud_penetration
atom number,atomic symbol, x, y, z, a, b, Rsquared where a and b are in atomic units and Rsquared is the squared correlation coefficient
    1 N     -1.754866    -0.268777     0.012753     0.921462     2.196327     0.998544
    2 C     -0.909202    -0.251495    -1.091333     1.939709     2.378570     0.997460
    3 C      0.356142     0.219672    -0.692294     1.240308     2.228984     0.999589
    4 C      0.268347     0.500630     0.724442     1.382551     2.257213     0.999646
    5 C     -1.046111     0.186889     1.119311     1.953514     2.381732     0.997407
    6 C     -1.179226    -0.589882    -2.415193     1.902906     2.354970     0.999393
    7 C     -0.148491    -0.463035    -3.332579     2.953465     2.614059     0.999457
    8 C      1.119101    -0.007639    -2.950384     3.002911     2.610705     0.999209
    9 C      1.376050     0.338454    -1.634235     2.673579     2.532241     0.998246
   10 C      1.178658     0.969447     1.669531     2.693366     2.537669     0.998252
   11 C      0.768504     1.112930     2.984556     2.893282     2.589910     0.999148
   12 C     -0.539095     0.784941     3.362592     2.946795     2.612849     0.999457
   13 C     -1.462941     0.316753     2.441994     1.892388     2.352088     0.999409
   14 H     -2.160557    -0.933055    -2.719348    -0.310127     2.406709     0.999720
   15 H     -0.331045    -0.719842    -4.369894     0.767589     2.711424     0.998579
   16 H      1.902215     0.078267    -3.694354     1.221054     2.787780     0.997961
   17 H      2.354987     0.700030    -1.339507     0.434306     2.588252     0.998262
   18 H      2.193968     1.214677     1.378119     0.456120     2.590919     0.998237
   19 H      1.464481     1.477476     3.730796     1.228716     2.789313     0.997969
   20 H     -0.836962     0.896013     4.399038     0.772125     2.712480     0.998587
   21 H     -2.470195     0.055161     2.742563    -0.401914     2.391347     0.999714
   22 C     -3.107629    -0.680944     0.010658     1.973576     2.388099     0.997309
   23 C     -3.449788    -1.956919    -0.427748     1.206275     2.234975     0.999918
   24 C     -4.778065    -2.353153    -0.439195     1.618990     2.323522     0.999902
   25 C     -5.788127    -1.497330     0.005294     1.375633     2.263598     0.997994
   26 C     -5.428149    -0.224404     0.452855     1.575895     2.314910     0.999908
   27 C     -4.104466     0.187093     0.446771     1.223747     2.236807     0.999879
   28 H     -2.670099    -2.631823    -0.760863    -1.113547     2.285209     0.999311
   29 H     -5.035792    -3.340191    -0.806788    -0.361119     2.442442     0.999026
   30 H     -6.193633     0.451031     0.818366    -0.371054     2.442150     0.999029
   31 H     -3.834569     1.181709     0.781849    -1.137723     2.284249     0.999321
   32 C     -7.206995    -1.929188     0.001549     1.403914     2.269516     0.998010
   33 C     -7.566222    -3.212021     0.420515     1.566672     2.313039     0.999909
   34 C     -8.889896    -3.623358     0.407208     1.216587     2.235714     0.999906
   35 C     -9.887455    -2.745629    -0.007341     1.986777     2.390573     0.997293
   36 C     -9.546040    -1.459951    -0.417047     1.238102     2.240413     0.999879
   37 C     -8.217790    -1.063477    -0.421619     1.572733     2.313225     0.999909
   38 H     -6.800123    -3.895585     0.769244    -0.387436     2.440968     0.998699
   39 H     -9.159209    -4.625402     0.719863    -1.118900     2.284760     0.999313
   40 H    -10.326304    -0.777696    -0.733426    -1.122170     2.284460     0.999303
   41 H     -7.960678    -0.068281    -0.766966    -0.389255     2.440557     0.998703
   42 N    -11.240181    -3.157846    -0.012604     0.879444     2.188771     0.998735
   43 C    -12.087714    -3.149092    -1.115365     1.951460     2.380960     0.997432
   44 C    -13.352349    -3.629704    -0.725417     1.472425     2.274086     0.999642
   45 C    -13.262167    -3.944045     0.684123     1.210245     2.223255     0.999561
   46 C    -11.947061    -3.639587     1.084076     1.940650     2.378522     0.997467
   47 C    -11.819980    -2.779545    -2.431344     1.908031     2.356009     0.999386
   48 C    -12.852252    -2.884897    -3.349726     2.976388     2.618872     0.999462
   49 C    -14.119155    -3.349363    -2.976240     2.999554     2.610812     0.999205
   50 C    -14.373838    -3.726397    -1.668172     2.684863     2.533984     0.998203
   51 C    -14.170862    -4.435222     1.619364     2.689005     2.537350     0.998266
   52 C    -13.758515    -4.609752     2.929946     3.002525     2.609233     0.999191
   53 C    -12.450319    -4.290612     3.313442     2.955955     2.614515     0.999443
   54 C    -11.528050    -3.800641     2.402638     1.887983     2.351975     0.999434
   55 H    -10.839196    -2.429110    -2.728947    -0.315960     2.406447     0.999720
   56 H    -12.671485    -2.603688    -4.381010     0.777475     2.712338     0.998600
   57 H    -14.903517    -3.417845    -3.720703     1.238769     2.790080     0.997957
   58 H    -15.352240    -4.094956    -1.380391     0.212649     2.542961     0.998578
   59 H    -15.186633    -4.673622     1.323914     0.454929     2.591190     0.998255
   60 H    -14.453208    -4.991954     3.668507     1.220581     2.787586     0.997966
   61 H    -12.150710    -4.426129     4.346477     0.765454     2.711279     0.998592
   62 H    -10.520334    -3.546096     2.707678    -0.350221     2.400069     0.999719
 
  
 Since the system is non-periodic, the total dipole and quadrupole moments were computed relative to the system center of mass.
 Multipole moments (in atomic units) using the net atomic charges:
 Partial_charge_dipole_x =    0.0004   Partial_charge_dipole_y =   -0.0041   Partial_charge_dipole_z =   -0.0081     Partial_charge_dipole_magnitude =    0.0091
 Partial_charge_quadrupole_xy =   -1.4687   Partial_charge_quadrupole_xz =    0.0806   Partial_charge_quadrupole_yz =   -0.0838   Partial_charge_quadrupole_x2minusy2 =   -4.1649   Partial_charge_quadrupole_3z2minusr2 =   17.4570
 Eigenvalues of traceless quadrupole moment tensor =   -5.4580  -0.3630   5.8210
 Multipole moments (in atomic units) using the net atomic charges and atomic dipoles:
 Dipole_x =   -0.0005   Dipole_y =   -0.0002   Dipole_z =    0.0003   Dipole_magnitude =    0.0006
 Quadrupole_xy =   -0.9273   Quadrupole_xz =    0.0042   Quadrupole_yz =   -0.1032   Quadrupole_x2minusy2 =   -2.7831   Quadrupole_3z2minusr2 =   18.0391
 Eigenvalues of traceless quadrupole moment tensor =   -4.6788  -1.3357   6.0145
 Multipole moments (in atomic units) using the net atomic charges, atomic dipoles, and atomic quadrupoles:
 Dipole_x =   -0.0005   Dipole_y =   -0.0002   Dipole_z =    0.0003   Dipole_magnitude =    0.0006
 Full_quadrupole_xy =   -0.0193   Full_quadrupole_xz =    0.0094   Full_quadrupole_yz =   -0.1167   Full_quadrupole_x2minusy2 =   -0.0910   Full_quadrupole_3z2minusr2 =   19.2758
 Eigenvalues of traceless quadrupole moment tensor =   -3.2621  -3.1646   6.4267
  
 2021/01/25  20:42:51
