  108
Nonperiodic system
N       2.120969     0.275469    -0.034494    76.121071
C       0.909496     0.827808    -0.065801    63.894465
N      -0.226192     0.136731    -0.074896    75.997610
C      -0.102552    -1.190256    -0.068626    64.237196
N       1.065206    -1.834250    -0.049015    76.673456
C       2.148351    -1.057054    -0.025118    64.294925
C       3.478911    -1.710557     0.015116    78.542745
C       3.586464    -3.096376    -0.057811    90.122457
H       2.684820    -3.686921    -0.160953    11.109035
C       4.836688    -3.710007    -0.025689    79.254608
C       5.975256    -2.911028     0.084289    90.487957
H       6.951969    -3.382903     0.109832    10.800493
C       5.886323    -1.521021     0.163872    79.289157
C       4.626422    -0.930221     0.126633    90.017329
H       4.519375     0.143933     0.205641    11.261321
C       4.954638    -5.187310    -0.114099    80.028446
C       4.081627    -6.014021     0.596564    86.311203
H       3.324981    -5.568290     1.233222     9.185718
C       4.189960    -7.395622     0.515932    83.074614
H       3.508540    -8.021918     1.080669     8.510386
C       5.173310    -7.974661    -0.277095    84.274978
H       5.258032    -9.053502    -0.340118     8.622666
C       6.046926    -7.162068    -0.989257    83.141964
H       6.811630    -7.605137    -1.617255     8.477434
C       5.938240    -5.780341    -0.908498    86.624294
H       6.608796    -5.152841    -1.485712     9.256076
C       7.104238    -0.682446     0.297385    79.981693
C       7.215814     0.524336    -0.397623    86.661939
H       6.415731     0.835468    -1.060497     9.249807
C       8.348091     1.316548    -0.266942    83.479356
H       8.418056     2.247288    -0.818593     8.566567
C       9.390414     0.914772     0.559834    84.035489
H      10.275175     1.532761     0.661800     8.635869
C       9.291165    -0.283959     1.255474    83.487556
H      10.095749    -0.601106     1.909350     8.479952
C       8.157522    -1.074989     1.126107    86.248280
H       8.077281    -1.996188     1.693098     9.312666
C       0.813817     2.306188    -0.105961    78.821746
C      -0.436024     2.919349    -0.124424    89.216011
H      -1.322901     2.299960    -0.081425    11.163405
C      -0.542550     4.306322    -0.178537    79.128414
C       0.626704     5.067695    -0.209871    90.936343
H       0.553306     6.149414    -0.252697    10.789981
C       1.887794     4.470455    -0.192197    79.260885
C       1.969012     3.081092    -0.140618    89.855239
H       2.931015     2.584606    -0.152092    11.177808
C       3.123487     5.291966    -0.244078    79.857017
C       4.232066     4.958645     0.537998    86.644277
H       4.176952     4.107691     1.208193     9.254747
C       5.393095     5.717579     0.483644    83.154542
H       6.240979     5.445848     1.102327     8.575993
C       5.465599     6.825141    -0.352642    84.126688
H       6.371826     7.418489    -0.394976     8.636388
C       4.369116     7.166873    -1.134708    83.292701
H       4.419559     8.024130    -1.796565     8.478627
C       3.208817     6.406246    -1.081573    86.530452
H       2.367168     6.664737    -1.715071     9.266546
C      -1.876842     4.957802    -0.203901    79.672250
C      -2.911977     4.428729    -0.978683    88.507456
H      -2.738681     3.538874    -1.574028    10.216218
C      -4.155246     5.045264    -1.013936    86.085303
H      -4.938910     4.627364    -1.635238    10.218798
C      -4.389503     6.195206    -0.269829    83.782536
H      -5.360357     6.676796    -0.299372     8.585217
C      -3.369661     6.724970     0.511446    83.196164
H      -3.545107     7.616054     1.103629     8.518578
C      -2.124247     6.112285     0.542374    86.358635
H      -1.339508     6.520914     1.169917     9.278540
C      -1.353247    -1.979426    -0.091357    79.777193
C      -2.575561    -1.313625     0.026342    90.719895
H      -2.593113    -0.237475     0.144488    11.566879
C      -3.739065    -2.048022    -0.014883    83.217716
C      -3.716182    -3.434755    -0.183065    79.971988
C      -2.501565    -4.103611    -0.293708    84.303386
H      -2.467848    -5.179669    -0.422625     8.675582
C      -1.324397    -3.369727    -0.242329    84.884463
H      -0.363966    -3.862163    -0.327883     9.423535
C      -5.166029    -1.535578     0.098294    82.847188
C      -5.103320    -3.917249    -0.216168    80.773741
C      -5.959477    -2.820358    -0.065359    83.682648
C      -7.332827    -2.986818    -0.066496    86.779353
H      -7.990726    -2.132647     0.051722     9.227065
C      -7.848966    -4.270104    -0.221882    82.935670
H      -8.922478    -4.420709    -0.226566     8.450797
C      -6.999587    -5.364995    -0.371196    84.360956
H      -7.420847    -6.356718    -0.490487     8.498260
C      -5.619508    -5.198142    -0.369534    85.450281
H      -4.961650    -6.052307    -0.487007     8.852248
C      -5.792185     0.753578    -0.265734    80.605085
C      -5.475998    -0.443636    -0.914293    83.112123
C      -5.436674    -0.515711    -2.295252    86.421457
H      -5.186728    -1.447141    -2.791887     9.266760
C      -5.719419     0.631634    -3.031324    83.143718
H      -5.694713     0.595651    -4.114406     8.402540
C      -6.032338     1.827628    -2.388009    84.952814
H      -6.250606     2.710540    -2.979039     8.804735
C      -6.071679     1.898923    -0.999701    88.633302
H      -6.310815     2.831456    -0.500699    10.342367
C      -5.413667    -0.810835     1.414318    83.582371
C      -5.754560     0.524625     1.184973    80.327603
C      -5.989698     1.384146     2.250435    85.275230
H      -6.244443     2.424395     2.079817     8.984146
C      -5.886696     0.885218     3.544061    84.003303
H      -6.065964     1.541139     4.388355     8.553857
C      -5.553627    -0.449221     3.768286    83.332453
H      -5.478925    -0.819591     4.784321     8.456744
C      -5.311474    -1.308817     2.700684    86.635341
H      -5.045652    -2.346688     2.870961     9.420867
  
Same information as above printed with atom number.
   1 N      2.120969     0.275469    -0.034494    76.121071
   2 C      0.909496     0.827808    -0.065801    63.894465
   3 N     -0.226192     0.136731    -0.074896    75.997610
   4 C     -0.102552    -1.190256    -0.068626    64.237196
   5 N      1.065206    -1.834250    -0.049015    76.673456
   6 C      2.148351    -1.057054    -0.025118    64.294925
   7 C      3.478911    -1.710557     0.015116    78.542745
   8 C      3.586464    -3.096376    -0.057811    90.122457
   9 H      2.684820    -3.686921    -0.160953    11.109035
  10 C      4.836688    -3.710007    -0.025689    79.254608
  11 C      5.975256    -2.911028     0.084289    90.487957
  12 H      6.951969    -3.382903     0.109832    10.800493
  13 C      5.886323    -1.521021     0.163872    79.289157
  14 C      4.626422    -0.930221     0.126633    90.017329
  15 H      4.519375     0.143933     0.205641    11.261321
  16 C      4.954638    -5.187310    -0.114099    80.028446
  17 C      4.081627    -6.014021     0.596564    86.311203
  18 H      3.324981    -5.568290     1.233222     9.185718
  19 C      4.189960    -7.395622     0.515932    83.074614
  20 H      3.508540    -8.021918     1.080669     8.510386
  21 C      5.173310    -7.974661    -0.277095    84.274978
  22 H      5.258032    -9.053502    -0.340118     8.622666
  23 C      6.046926    -7.162068    -0.989257    83.141964
  24 H      6.811630    -7.605137    -1.617255     8.477434
  25 C      5.938240    -5.780341    -0.908498    86.624294
  26 H      6.608796    -5.152841    -1.485712     9.256076
  27 C      7.104238    -0.682446     0.297385    79.981693
  28 C      7.215814     0.524336    -0.397623    86.661939
  29 H      6.415731     0.835468    -1.060497     9.249807
  30 C      8.348091     1.316548    -0.266942    83.479356
  31 H      8.418056     2.247288    -0.818593     8.566567
  32 C      9.390414     0.914772     0.559834    84.035489
  33 H     10.275175     1.532761     0.661800     8.635869
  34 C      9.291165    -0.283959     1.255474    83.487556
  35 H     10.095749    -0.601106     1.909350     8.479952
  36 C      8.157522    -1.074989     1.126107    86.248280
  37 H      8.077281    -1.996188     1.693098     9.312666
  38 C      0.813817     2.306188    -0.105961    78.821746
  39 C     -0.436024     2.919349    -0.124424    89.216011
  40 H     -1.322901     2.299960    -0.081425    11.163405
  41 C     -0.542550     4.306322    -0.178537    79.128414
  42 C      0.626704     5.067695    -0.209871    90.936343
  43 H      0.553306     6.149414    -0.252697    10.789981
  44 C      1.887794     4.470455    -0.192197    79.260885
  45 C      1.969012     3.081092    -0.140618    89.855239
  46 H      2.931015     2.584606    -0.152092    11.177808
  47 C      3.123487     5.291966    -0.244078    79.857017
  48 C      4.232066     4.958645     0.537998    86.644277
  49 H      4.176952     4.107691     1.208193     9.254747
  50 C      5.393095     5.717579     0.483644    83.154542
  51 H      6.240979     5.445848     1.102327     8.575993
  52 C      5.465599     6.825141    -0.352642    84.126688
  53 H      6.371826     7.418489    -0.394976     8.636388
  54 C      4.369116     7.166873    -1.134708    83.292701
  55 H      4.419559     8.024130    -1.796565     8.478627
  56 C      3.208817     6.406246    -1.081573    86.530452
  57 H      2.367168     6.664737    -1.715071     9.266546
  58 C     -1.876842     4.957802    -0.203901    79.672250
  59 C     -2.911977     4.428729    -0.978683    88.507456
  60 H     -2.738681     3.538874    -1.574028    10.216218
  61 C     -4.155246     5.045264    -1.013936    86.085303
  62 H     -4.938910     4.627364    -1.635238    10.218798
  63 C     -4.389503     6.195206    -0.269829    83.782536
  64 H     -5.360357     6.676796    -0.299372     8.585217
  65 C     -3.369661     6.724970     0.511446    83.196164
  66 H     -3.545107     7.616054     1.103629     8.518578
  67 C     -2.124247     6.112285     0.542374    86.358635
  68 H     -1.339508     6.520914     1.169917     9.278540
  69 C     -1.353247    -1.979426    -0.091357    79.777193
  70 C     -2.575561    -1.313625     0.026342    90.719895
  71 H     -2.593113    -0.237475     0.144488    11.566879
  72 C     -3.739065    -2.048022    -0.014883    83.217716
  73 C     -3.716182    -3.434755    -0.183065    79.971988
  74 C     -2.501565    -4.103611    -0.293708    84.303386
  75 H     -2.467848    -5.179669    -0.422625     8.675582
  76 C     -1.324397    -3.369727    -0.242329    84.884463
  77 H     -0.363966    -3.862163    -0.327883     9.423535
  78 C     -5.166029    -1.535578     0.098294    82.847188
  79 C     -5.103320    -3.917249    -0.216168    80.773741
  80 C     -5.959477    -2.820358    -0.065359    83.682648
  81 C     -7.332827    -2.986818    -0.066496    86.779353
  82 H     -7.990726    -2.132647     0.051722     9.227065
  83 C     -7.848966    -4.270104    -0.221882    82.935670
  84 H     -8.922478    -4.420709    -0.226566     8.450797
  85 C     -6.999587    -5.364995    -0.371196    84.360956
  86 H     -7.420847    -6.356718    -0.490487     8.498260
  87 C     -5.619508    -5.198142    -0.369534    85.450281
  88 H     -4.961650    -6.052307    -0.487007     8.852248
  89 C     -5.792185     0.753578    -0.265734    80.605085
  90 C     -5.475998    -0.443636    -0.914293    83.112123
  91 C     -5.436674    -0.515711    -2.295252    86.421457
  92 H     -5.186728    -1.447141    -2.791887     9.266760
  93 C     -5.719419     0.631634    -3.031324    83.143718
  94 H     -5.694713     0.595651    -4.114406     8.402540
  95 C     -6.032338     1.827628    -2.388009    84.952814
  96 H     -6.250606     2.710540    -2.979039     8.804735
  97 C     -6.071679     1.898923    -0.999701    88.633302
  98 H     -6.310815     2.831456    -0.500699    10.342367
  99 C     -5.413667    -0.810835     1.414318    83.582371
 100 C     -5.754560     0.524625     1.184973    80.327603
 101 C     -5.989698     1.384146     2.250435    85.275230
 102 H     -6.244443     2.424395     2.079817     8.984146
 103 C     -5.886696     0.885218     3.544061    84.003303
 104 H     -6.065964     1.541139     4.388355     8.553857
 105 C     -5.553627    -0.449221     3.768286    83.332453
 106 H     -5.478925    -0.819591     4.784321     8.456744
 107 C     -5.311474    -1.308817     2.700684    86.635341
 108 H     -5.045652    -2.346688     2.870961     9.420867
