  108
Nonperiodic system
N       2.120969     0.275469    -0.034494    13.422067
C       0.909496     0.827808    -0.065801    10.274510
N      -0.226192     0.136731    -0.074896    13.404013
C      -0.102552    -1.190256    -0.068626    10.269158
N       1.065206    -1.834250    -0.049015    13.481558
C       2.148351    -1.057054    -0.025118    10.293397
C       3.478911    -1.710557     0.015116    12.048482
C       3.586464    -3.096376    -0.057811    13.071840
H       2.684820    -3.686921    -0.160953     1.833258
C       4.836688    -3.710007    -0.025689    11.859428
C       5.975256    -2.911028     0.084289    13.137593
H       6.951969    -3.382903     0.109832     1.808612
C       5.886323    -1.521021     0.163872    11.871515
C       4.626422    -0.930221     0.126633    13.054367
H       4.519375     0.143933     0.205641     1.839927
C       4.954638    -5.187310    -0.114099    11.916198
C       4.081627    -6.014021     0.596564    12.930390
H       3.324981    -5.568290     1.233222     1.707206
C       4.189960    -7.395622     0.515932    12.694610
H       3.508540    -8.021918     1.080669     1.683531
C       5.173310    -7.974661    -0.277095    12.781616
H       5.258032    -9.053502    -0.340118     1.690203
C       6.046926    -7.162068    -0.989257    12.701669
H       6.811630    -7.605137    -1.617255     1.678228
C       5.938240    -5.780341    -0.908498    12.954409
H       6.608796    -5.152841    -1.485712     1.716266
C       7.104238    -0.682446     0.297385    11.902338
C       7.215814     0.524336    -0.397623    12.937511
H       6.415731     0.835468    -1.060497     1.700915
C       8.348091     1.316548    -0.266942    12.721276
H       8.418056     2.247288    -0.818593     1.677738
C       9.390414     0.914772     0.559834    12.762824
H      10.275175     1.532761     0.661800     1.692677
C       9.291165    -0.283959     1.255474    12.727665
H      10.095749    -0.601106     1.909350     1.678687
C       8.157522    -1.074989     1.126107    12.927891
H       8.077281    -1.996188     1.693098     1.723727
C       0.813817     2.306188    -0.105961    12.075302
C      -0.436024     2.919349    -0.124424    13.011418
H      -1.322901     2.299960    -0.081425     1.810412
C      -0.542550     4.306322    -0.178537    11.859170
C       0.626704     5.067695    -0.209871    13.173122
H       0.553306     6.149414    -0.252697     1.796450
C       1.887794     4.470455    -0.192197    11.869444
C       1.969012     3.081092    -0.140618    13.050749
H       2.931015     2.584606    -0.152092     1.830773
C       3.123487     5.291966    -0.244078    11.902118
C       4.232066     4.958645     0.537998    12.929525
H       4.176952     4.107691     1.208193     1.713983
C       5.393095     5.717579     0.483644    12.696864
H       6.240979     5.445848     1.102327     1.680906
C       5.465599     6.825141    -0.352642    12.776842
H       6.371826     7.418489    -0.394976     1.691603
C       4.369116     7.166873    -1.134708    12.709301
H       4.419559     8.024130    -1.796565     1.678956
C       3.208817     6.406246    -1.081573    12.943827
H       2.367168     6.664737    -1.715071     1.725280
C      -1.876842     4.957802    -0.203901    11.898895
C      -2.911977     4.428729    -0.978683    12.955961
H      -2.738681     3.538874    -1.574028     1.744189
C      -4.155246     5.045264    -1.013936    12.789696
H      -4.938910     4.627364    -1.635238     1.776721
C      -4.389503     6.195206    -0.269829    12.767852
H      -5.360357     6.676796    -0.299372     1.691344
C      -3.369661     6.724970     0.511446    12.705978
H      -3.545107     7.616054     1.103629     1.683833
C      -2.124247     6.112285     0.542374    12.939321
H      -1.339508     6.520914     1.169917     1.719713
C      -1.353247    -1.979426    -0.091357    12.153380
C      -2.575561    -1.313625     0.026342    12.982369
H      -2.593113    -0.237475     0.144488     1.811303
C      -3.739065    -2.048022    -0.014883    12.084002
C      -3.716182    -3.434755    -0.183065    11.992700
C      -2.501565    -4.103611    -0.293708    12.859498
H      -2.467848    -5.179669    -0.422625     1.678242
C      -1.324397    -3.369727    -0.242329    12.773773
H      -0.363966    -3.862163    -0.327883     1.732653
C      -5.166029    -1.535578     0.098294    11.880759
C      -5.103320    -3.917249    -0.216168    12.076946
C      -5.959477    -2.820358    -0.065359    12.099362
C      -7.332827    -2.986818    -0.066496    12.894191
H      -7.990726    -2.132647     0.051722     1.682954
C      -7.848966    -4.270104    -0.221882    12.696453
H      -8.922478    -4.420709    -0.226566     1.684489
C      -6.999587    -5.364995    -0.371196    12.789361
H      -7.420847    -6.356718    -0.490487     1.679199
C      -5.619508    -5.198142    -0.369534    12.894592
H      -4.961650    -6.052307    -0.487007     1.686109
C      -5.792185     0.753578    -0.265734    12.034357
C      -5.475998    -0.443636    -0.914293    12.078313
C      -5.436674    -0.515711    -2.295252    12.870614
H      -5.186728    -1.447141    -2.791887     1.698242
C      -5.719419     0.631634    -3.031324    12.728862
H      -5.694713     0.595651    -4.114406     1.679762
C      -6.032338     1.827628    -2.388009    12.815701
H      -6.250606     2.710540    -2.979039     1.700819
C      -6.071679     1.898923    -0.999701    12.960407
H      -6.310815     2.831456    -0.500699     1.771891
C      -5.413667    -0.810835     1.414318    12.109343
C      -5.754560     0.524625     1.184973    12.031201
C      -5.989698     1.384146     2.250435    12.870321
H      -6.244443     2.424395     2.079817     1.691189
C      -5.886696     0.885218     3.544061    12.760786
H      -6.065964     1.541139     4.388355     1.689724
C      -5.553627    -0.449221     3.768286    12.732204
H      -5.478925    -0.819591     4.784321     1.683897
C      -5.311474    -1.308817     2.700684    12.877644
H      -5.045652    -2.346688     2.870961     1.708957
  
Same information as above printed with atom number.
   1 N      2.120969     0.275469    -0.034494    13.422067
   2 C      0.909496     0.827808    -0.065801    10.274510
   3 N     -0.226192     0.136731    -0.074896    13.404013
   4 C     -0.102552    -1.190256    -0.068626    10.269158
   5 N      1.065206    -1.834250    -0.049015    13.481558
   6 C      2.148351    -1.057054    -0.025118    10.293397
   7 C      3.478911    -1.710557     0.015116    12.048482
   8 C      3.586464    -3.096376    -0.057811    13.071840
   9 H      2.684820    -3.686921    -0.160953     1.833258
  10 C      4.836688    -3.710007    -0.025689    11.859428
  11 C      5.975256    -2.911028     0.084289    13.137593
  12 H      6.951969    -3.382903     0.109832     1.808612
  13 C      5.886323    -1.521021     0.163872    11.871515
  14 C      4.626422    -0.930221     0.126633    13.054367
  15 H      4.519375     0.143933     0.205641     1.839927
  16 C      4.954638    -5.187310    -0.114099    11.916198
  17 C      4.081627    -6.014021     0.596564    12.930390
  18 H      3.324981    -5.568290     1.233222     1.707206
  19 C      4.189960    -7.395622     0.515932    12.694610
  20 H      3.508540    -8.021918     1.080669     1.683531
  21 C      5.173310    -7.974661    -0.277095    12.781616
  22 H      5.258032    -9.053502    -0.340118     1.690203
  23 C      6.046926    -7.162068    -0.989257    12.701669
  24 H      6.811630    -7.605137    -1.617255     1.678228
  25 C      5.938240    -5.780341    -0.908498    12.954409
  26 H      6.608796    -5.152841    -1.485712     1.716266
  27 C      7.104238    -0.682446     0.297385    11.902338
  28 C      7.215814     0.524336    -0.397623    12.937511
  29 H      6.415731     0.835468    -1.060497     1.700915
  30 C      8.348091     1.316548    -0.266942    12.721276
  31 H      8.418056     2.247288    -0.818593     1.677738
  32 C      9.390414     0.914772     0.559834    12.762824
  33 H     10.275175     1.532761     0.661800     1.692677
  34 C      9.291165    -0.283959     1.255474    12.727665
  35 H     10.095749    -0.601106     1.909350     1.678687
  36 C      8.157522    -1.074989     1.126107    12.927891
  37 H      8.077281    -1.996188     1.693098     1.723727
  38 C      0.813817     2.306188    -0.105961    12.075302
  39 C     -0.436024     2.919349    -0.124424    13.011418
  40 H     -1.322901     2.299960    -0.081425     1.810412
  41 C     -0.542550     4.306322    -0.178537    11.859170
  42 C      0.626704     5.067695    -0.209871    13.173122
  43 H      0.553306     6.149414    -0.252697     1.796450
  44 C      1.887794     4.470455    -0.192197    11.869444
  45 C      1.969012     3.081092    -0.140618    13.050749
  46 H      2.931015     2.584606    -0.152092     1.830773
  47 C      3.123487     5.291966    -0.244078    11.902118
  48 C      4.232066     4.958645     0.537998    12.929525
  49 H      4.176952     4.107691     1.208193     1.713983
  50 C      5.393095     5.717579     0.483644    12.696864
  51 H      6.240979     5.445848     1.102327     1.680906
  52 C      5.465599     6.825141    -0.352642    12.776842
  53 H      6.371826     7.418489    -0.394976     1.691603
  54 C      4.369116     7.166873    -1.134708    12.709301
  55 H      4.419559     8.024130    -1.796565     1.678956
  56 C      3.208817     6.406246    -1.081573    12.943827
  57 H      2.367168     6.664737    -1.715071     1.725280
  58 C     -1.876842     4.957802    -0.203901    11.898895
  59 C     -2.911977     4.428729    -0.978683    12.955961
  60 H     -2.738681     3.538874    -1.574028     1.744189
  61 C     -4.155246     5.045264    -1.013936    12.789696
  62 H     -4.938910     4.627364    -1.635238     1.776721
  63 C     -4.389503     6.195206    -0.269829    12.767852
  64 H     -5.360357     6.676796    -0.299372     1.691344
  65 C     -3.369661     6.724970     0.511446    12.705978
  66 H     -3.545107     7.616054     1.103629     1.683833
  67 C     -2.124247     6.112285     0.542374    12.939321
  68 H     -1.339508     6.520914     1.169917     1.719713
  69 C     -1.353247    -1.979426    -0.091357    12.153380
  70 C     -2.575561    -1.313625     0.026342    12.982369
  71 H     -2.593113    -0.237475     0.144488     1.811303
  72 C     -3.739065    -2.048022    -0.014883    12.084002
  73 C     -3.716182    -3.434755    -0.183065    11.992700
  74 C     -2.501565    -4.103611    -0.293708    12.859498
  75 H     -2.467848    -5.179669    -0.422625     1.678242
  76 C     -1.324397    -3.369727    -0.242329    12.773773
  77 H     -0.363966    -3.862163    -0.327883     1.732653
  78 C     -5.166029    -1.535578     0.098294    11.880759
  79 C     -5.103320    -3.917249    -0.216168    12.076946
  80 C     -5.959477    -2.820358    -0.065359    12.099362
  81 C     -7.332827    -2.986818    -0.066496    12.894191
  82 H     -7.990726    -2.132647     0.051722     1.682954
  83 C     -7.848966    -4.270104    -0.221882    12.696453
  84 H     -8.922478    -4.420709    -0.226566     1.684489
  85 C     -6.999587    -5.364995    -0.371196    12.789361
  86 H     -7.420847    -6.356718    -0.490487     1.679199
  87 C     -5.619508    -5.198142    -0.369534    12.894592
  88 H     -4.961650    -6.052307    -0.487007     1.686109
  89 C     -5.792185     0.753578    -0.265734    12.034357
  90 C     -5.475998    -0.443636    -0.914293    12.078313
  91 C     -5.436674    -0.515711    -2.295252    12.870614
  92 H     -5.186728    -1.447141    -2.791887     1.698242
  93 C     -5.719419     0.631634    -3.031324    12.728862
  94 H     -5.694713     0.595651    -4.114406     1.679762
  95 C     -6.032338     1.827628    -2.388009    12.815701
  96 H     -6.250606     2.710540    -2.979039     1.700819
  97 C     -6.071679     1.898923    -0.999701    12.960407
  98 H     -6.310815     2.831456    -0.500699     1.771891
  99 C     -5.413667    -0.810835     1.414318    12.109343
 100 C     -5.754560     0.524625     1.184973    12.031201
 101 C     -5.989698     1.384146     2.250435    12.870321
 102 H     -6.244443     2.424395     2.079817     1.691189
 103 C     -5.886696     0.885218     3.544061    12.760786
 104 H     -6.065964     1.541139     4.388355     1.689724
 105 C     -5.553627    -0.449221     3.768286    12.732204
 106 H     -5.478925    -0.819591     4.784321     1.683897
 107 C     -5.311474    -1.308817     2.700684    12.877644
 108 H     -5.045652    -2.346688     2.870961     1.708957
