  108
Nonperiodic system
N       2.120969     0.275469    -0.034494    28.878950
C       0.909496     0.827808    -0.065801    23.246234
N      -0.226192     0.136731    -0.074896    28.829606
C      -0.102552    -1.190256    -0.068626    23.289737
N       1.065206    -1.834250    -0.049015    29.058265
C       2.148351    -1.057054    -0.025118    23.330932
C       3.478911    -1.710557     0.015116    27.915925
C       3.586464    -3.096376    -0.057811    31.126242
H       2.684820    -3.686921    -0.160953     4.047295
C       4.836688    -3.710007    -0.025689    27.729093
C       5.975256    -2.911028     0.084289    31.257863
H       6.951969    -3.382903     0.109832     3.954080
C       5.886323    -1.521021     0.163872    27.751687
C       4.626422    -0.930221     0.126633    31.082413
H       4.519375     0.143933     0.205641     4.076519
C       4.954638    -5.187310    -0.114099    27.914466
C       4.081627    -6.014021     0.596564    30.416439
H       3.324981    -5.568290     1.233222     3.554911
C       4.189960    -7.395622     0.515932    29.653886
H       3.508540    -8.021918     1.080669     3.412550
C       5.173310    -7.974661    -0.277095    29.946032
H       5.258032    -9.053502    -0.340118     3.439816
C       6.046926    -7.162068    -0.989257    29.674118
H       6.811630    -7.605137    -1.617255     3.400464
C       5.938240    -5.780341    -0.908498    30.498019
H       6.608796    -5.152841    -1.485712     3.581183
C       7.104238    -0.682446     0.297385    27.883370
C       7.215814     0.524336    -0.397623    30.462086
H       6.415731     0.835468    -1.060497     3.551431
C       8.348091     1.316548    -0.266942    29.746893
H       8.418056     2.247288    -0.818593     3.410860
C       9.390414     0.914772     0.559834    29.883140
H      10.275175     1.532761     0.661800     3.445783
C       9.291165    -0.283959     1.255474    29.764617
H      10.095749    -0.601106     1.909350     3.401245
C       8.157522    -1.074989     1.126107    30.406847
H       8.077281    -1.996188     1.693098     3.599534
C       0.813817     2.306188    -0.105961    27.997118
C      -0.436024     2.919349    -0.124424    30.900356
H      -1.322901     2.299960    -0.081425     4.012623
C      -0.542550     4.306322    -0.178537    27.708297
C       0.626704     5.067695    -0.209871    31.379786
H       0.553306     6.149414    -0.252697     3.936214
C       1.887794     4.470455    -0.192197    27.744749
C       1.969012     3.081092    -0.140618    31.054280
H       2.931015     2.584606    -0.152092     4.049475
C       3.123487     5.291966    -0.244078    27.869611
C       4.232066     4.958645     0.537998    30.447358
H       4.176952     4.107691     1.208193     3.570676
C       5.393095     5.717579     0.483644    29.663251
H       6.240979     5.445848     1.102327     3.416905
C       5.465599     6.825141    -0.352642    29.923430
H       6.371826     7.418489    -0.394976     3.443979
C       4.369116     7.166873    -1.134708    29.708232
H       4.419559     8.024130    -1.796565     3.401409
C       3.208817     6.406246    -1.081573    30.466983
H       2.367168     6.664737    -1.715071     3.594767
C      -1.876842     4.957802    -0.203901    27.836435
C      -2.911977     4.428729    -0.978683    30.706782
H      -2.738681     3.538874    -1.574028     3.757243
C      -4.155246     5.045264    -1.013936    30.184120
H      -4.938910     4.627364    -1.635238     3.805011
C      -4.389503     6.195206    -0.269829    29.857748
H      -5.360357     6.676796    -0.299372     3.436739
C      -3.369661     6.724970     0.511446    29.690102
H      -3.545107     7.616054     1.103629     3.414198
C      -2.124247     6.112285     0.542374    30.438627
H      -1.339508     6.520914     1.169917     3.589053
C      -1.353247    -1.979426    -0.091357    28.237754
C      -2.575561    -1.313625     0.026342    31.011277
H      -2.593113    -0.237475     0.144488     4.063123
C      -3.739065    -2.048022    -0.014883    28.538045
C      -3.716182    -3.434755    -0.183065    28.003668
C      -2.501565    -4.103611    -0.293708    30.032523
H      -2.467848    -5.179669    -0.422625     3.431412
C      -1.324397    -3.369727    -0.242329    30.012384
H      -0.363966    -3.862163    -0.327883     3.635504
C      -5.166029    -1.535578     0.098294    27.961426
C      -5.103320    -3.917249    -0.216168    28.233622
C      -5.959477    -2.820358    -0.065359    28.629354
C      -7.332827    -2.986818    -0.066496    30.390338
H      -7.990726    -2.132647     0.051722     3.520030
C      -7.848966    -4.270104    -0.221882    29.638588
H      -8.922478    -4.420709    -0.226566     3.404001
C      -6.999587    -5.364995    -0.371196    29.985627
H      -7.420847    -6.356718    -0.490487     3.404373
C      -5.619508    -5.198142    -0.369534    30.247891
H      -4.961650    -6.052307    -0.487007     3.468784
C      -5.792185     0.753578    -0.265734    28.123337
C      -5.475998    -0.443636    -0.914293    28.514916
C      -5.436674    -0.515711    -2.295252    30.304089
H      -5.186728    -1.447141    -2.791887     3.547274
C      -5.719419     0.631634    -3.031324    29.718420
H      -5.694713     0.595651    -4.114406     3.391071
C      -6.032338     1.827628    -2.388009    30.094149
H      -6.250606     2.710540    -2.979039     3.481264
C      -6.071679     1.898923    -0.999701    30.733173
H      -6.310815     2.831456    -0.500699     3.814511
C      -5.413667    -0.810835     1.414318    28.633552
C      -5.754560     0.524625     1.184973    28.094736
C      -5.989698     1.384146     2.250435    30.169512
H      -6.244443     2.424395     2.079817     3.491100
C      -5.886696     0.885218     3.544061    29.890947
H      -6.065964     1.541139     4.388355     3.426976
C      -5.553627    -0.449221     3.768286    29.751633
H      -5.478925    -0.819591     4.784321     3.404318
C      -5.311474    -1.308817     2.700684    30.343558
H      -5.045652    -2.346688     2.870961     3.585980
  
Same information as above printed with atom number.
   1 N      2.120969     0.275469    -0.034494    28.878950
   2 C      0.909496     0.827808    -0.065801    23.246234
   3 N     -0.226192     0.136731    -0.074896    28.829606
   4 C     -0.102552    -1.190256    -0.068626    23.289737
   5 N      1.065206    -1.834250    -0.049015    29.058265
   6 C      2.148351    -1.057054    -0.025118    23.330932
   7 C      3.478911    -1.710557     0.015116    27.915925
   8 C      3.586464    -3.096376    -0.057811    31.126242
   9 H      2.684820    -3.686921    -0.160953     4.047295
  10 C      4.836688    -3.710007    -0.025689    27.729093
  11 C      5.975256    -2.911028     0.084289    31.257863
  12 H      6.951969    -3.382903     0.109832     3.954080
  13 C      5.886323    -1.521021     0.163872    27.751687
  14 C      4.626422    -0.930221     0.126633    31.082413
  15 H      4.519375     0.143933     0.205641     4.076519
  16 C      4.954638    -5.187310    -0.114099    27.914466
  17 C      4.081627    -6.014021     0.596564    30.416439
  18 H      3.324981    -5.568290     1.233222     3.554911
  19 C      4.189960    -7.395622     0.515932    29.653886
  20 H      3.508540    -8.021918     1.080669     3.412550
  21 C      5.173310    -7.974661    -0.277095    29.946032
  22 H      5.258032    -9.053502    -0.340118     3.439816
  23 C      6.046926    -7.162068    -0.989257    29.674118
  24 H      6.811630    -7.605137    -1.617255     3.400464
  25 C      5.938240    -5.780341    -0.908498    30.498019
  26 H      6.608796    -5.152841    -1.485712     3.581183
  27 C      7.104238    -0.682446     0.297385    27.883370
  28 C      7.215814     0.524336    -0.397623    30.462086
  29 H      6.415731     0.835468    -1.060497     3.551431
  30 C      8.348091     1.316548    -0.266942    29.746893
  31 H      8.418056     2.247288    -0.818593     3.410860
  32 C      9.390414     0.914772     0.559834    29.883140
  33 H     10.275175     1.532761     0.661800     3.445783
  34 C      9.291165    -0.283959     1.255474    29.764617
  35 H     10.095749    -0.601106     1.909350     3.401245
  36 C      8.157522    -1.074989     1.126107    30.406847
  37 H      8.077281    -1.996188     1.693098     3.599534
  38 C      0.813817     2.306188    -0.105961    27.997118
  39 C     -0.436024     2.919349    -0.124424    30.900356
  40 H     -1.322901     2.299960    -0.081425     4.012623
  41 C     -0.542550     4.306322    -0.178537    27.708297
  42 C      0.626704     5.067695    -0.209871    31.379786
  43 H      0.553306     6.149414    -0.252697     3.936214
  44 C      1.887794     4.470455    -0.192197    27.744749
  45 C      1.969012     3.081092    -0.140618    31.054280
  46 H      2.931015     2.584606    -0.152092     4.049475
  47 C      3.123487     5.291966    -0.244078    27.869611
  48 C      4.232066     4.958645     0.537998    30.447358
  49 H      4.176952     4.107691     1.208193     3.570676
  50 C      5.393095     5.717579     0.483644    29.663251
  51 H      6.240979     5.445848     1.102327     3.416905
  52 C      5.465599     6.825141    -0.352642    29.923430
  53 H      6.371826     7.418489    -0.394976     3.443979
  54 C      4.369116     7.166873    -1.134708    29.708232
  55 H      4.419559     8.024130    -1.796565     3.401409
  56 C      3.208817     6.406246    -1.081573    30.466983
  57 H      2.367168     6.664737    -1.715071     3.594767
  58 C     -1.876842     4.957802    -0.203901    27.836435
  59 C     -2.911977     4.428729    -0.978683    30.706782
  60 H     -2.738681     3.538874    -1.574028     3.757243
  61 C     -4.155246     5.045264    -1.013936    30.184120
  62 H     -4.938910     4.627364    -1.635238     3.805011
  63 C     -4.389503     6.195206    -0.269829    29.857748
  64 H     -5.360357     6.676796    -0.299372     3.436739
  65 C     -3.369661     6.724970     0.511446    29.690102
  66 H     -3.545107     7.616054     1.103629     3.414198
  67 C     -2.124247     6.112285     0.542374    30.438627
  68 H     -1.339508     6.520914     1.169917     3.589053
  69 C     -1.353247    -1.979426    -0.091357    28.237754
  70 C     -2.575561    -1.313625     0.026342    31.011277
  71 H     -2.593113    -0.237475     0.144488     4.063123
  72 C     -3.739065    -2.048022    -0.014883    28.538045
  73 C     -3.716182    -3.434755    -0.183065    28.003668
  74 C     -2.501565    -4.103611    -0.293708    30.032523
  75 H     -2.467848    -5.179669    -0.422625     3.431412
  76 C     -1.324397    -3.369727    -0.242329    30.012384
  77 H     -0.363966    -3.862163    -0.327883     3.635504
  78 C     -5.166029    -1.535578     0.098294    27.961426
  79 C     -5.103320    -3.917249    -0.216168    28.233622
  80 C     -5.959477    -2.820358    -0.065359    28.629354
  81 C     -7.332827    -2.986818    -0.066496    30.390338
  82 H     -7.990726    -2.132647     0.051722     3.520030
  83 C     -7.848966    -4.270104    -0.221882    29.638588
  84 H     -8.922478    -4.420709    -0.226566     3.404001
  85 C     -6.999587    -5.364995    -0.371196    29.985627
  86 H     -7.420847    -6.356718    -0.490487     3.404373
  87 C     -5.619508    -5.198142    -0.369534    30.247891
  88 H     -4.961650    -6.052307    -0.487007     3.468784
  89 C     -5.792185     0.753578    -0.265734    28.123337
  90 C     -5.475998    -0.443636    -0.914293    28.514916
  91 C     -5.436674    -0.515711    -2.295252    30.304089
  92 H     -5.186728    -1.447141    -2.791887     3.547274
  93 C     -5.719419     0.631634    -3.031324    29.718420
  94 H     -5.694713     0.595651    -4.114406     3.391071
  95 C     -6.032338     1.827628    -2.388009    30.094149
  96 H     -6.250606     2.710540    -2.979039     3.481264
  97 C     -6.071679     1.898923    -0.999701    30.733173
  98 H     -6.310815     2.831456    -0.500699     3.814511
  99 C     -5.413667    -0.810835     1.414318    28.633552
 100 C     -5.754560     0.524625     1.184973    28.094736
 101 C     -5.989698     1.384146     2.250435    30.169512
 102 H     -6.244443     2.424395     2.079817     3.491100
 103 C     -5.886696     0.885218     3.544061    29.890947
 104 H     -6.065964     1.541139     4.388355     3.426976
 105 C     -5.553627    -0.449221     3.768286    29.751633
 106 H     -5.478925    -0.819591     4.784321     3.404318
 107 C     -5.311474    -1.308817     2.700684    30.343558
 108 H     -5.045652    -2.346688     2.870961     3.585980
