   52
Nonperiodic system
N      -0.637503     2.320861     0.391778    12.146682
C      -0.006540     3.555046     0.513606    11.576472
C      -0.606337     4.465081    -0.377303    12.304032
C      -1.651535     3.743457    -1.070675    12.338288
C      -1.637942     2.427978    -0.570258    11.541307
C       1.067005     3.922272     1.321304    13.264698
C       1.519070     5.229305     1.232326    12.743880
C       0.925709     6.150485     0.361140    12.974915
C      -0.133434     5.773739    -0.447938    12.813351
C      -2.582229     4.101250    -2.044001    12.811847
C      -3.480829     3.149648    -2.496473    12.967409
C      -3.461102     1.848791    -1.979535    12.713715
C      -2.545943     1.468277    -1.011174    13.233918
H       1.537328     3.212196     1.990549     1.746344
H       2.353113     5.542109     1.850195     1.674872
H       1.304191     7.164876     0.318033     1.691648
H      -0.587020     6.484318    -1.129976     1.674643
H      -2.602631     5.111291    -2.438030     1.675802
H      -4.209509     3.411966    -3.254297     1.694097
H      -4.177910     1.120955    -2.342172     1.672385
H      -2.542776     0.461927    -0.610624     1.718761
C       0.002902    -0.016456     0.436077    13.377880
C       0.317253    -1.168896     1.148425    11.267496
C       0.326554    -1.151002     2.540846    13.039034
C       0.001122     0.018575     3.213470    12.552811
C      -0.312649     1.153536     1.118743    11.293107
C      -0.323580     1.170780     2.511187    13.018676
H       0.003788    -0.030131    -0.647207     1.697053
H       0.594362    -2.049749     3.083014     1.645493
H       0.000484     0.032251     4.296935     1.641192
H      -0.592088     2.082882     3.030220     1.648111
N       0.642253    -2.354481     0.451632    12.164135
C       0.008328    -3.583931     0.602333    11.550373
C       0.608744    -4.517125    -0.263874    12.299515
C       1.657007    -3.814917    -0.972415    12.321818
C       1.644470    -2.487257    -0.505241    11.532245
C      -1.068073    -3.928738     1.416103    13.292369
C      -1.522546    -5.236694     1.358576    12.735615
C      -0.928713    -6.180522     0.512304    12.974952
C       0.133385    -5.826226    -0.303032    12.820536
C       2.589553    -4.198685    -1.934010    12.825770
C       3.490866    -3.260254    -2.408061    12.952136
C       3.471895    -1.946695    -1.924217    12.734602
C       2.555008    -1.540382    -0.968034    13.229725
H      -1.538559    -3.201212     2.066261     1.741940
H      -2.358848    -5.532352     1.981816     1.675542
H      -1.309155    -7.194921     0.493503     1.692139
H       0.587308    -6.554513    -0.965903     1.674016
H       2.609216    -5.218388    -2.302361     1.674793
H       4.221042    -3.542780    -3.157125     1.693651
H       4.190777    -1.229352    -2.303296     1.671977
H       2.552716    -0.524194    -0.593141     1.718321
  
Same information as above printed with atom number.
   1 N     -0.637503     2.320861     0.391778    12.146682
   2 C     -0.006540     3.555046     0.513606    11.576472
   3 C     -0.606337     4.465081    -0.377303    12.304032
   4 C     -1.651535     3.743457    -1.070675    12.338288
   5 C     -1.637942     2.427978    -0.570258    11.541307
   6 C      1.067005     3.922272     1.321304    13.264698
   7 C      1.519070     5.229305     1.232326    12.743880
   8 C      0.925709     6.150485     0.361140    12.974915
   9 C     -0.133434     5.773739    -0.447938    12.813351
  10 C     -2.582229     4.101250    -2.044001    12.811847
  11 C     -3.480829     3.149648    -2.496473    12.967409
  12 C     -3.461102     1.848791    -1.979535    12.713715
  13 C     -2.545943     1.468277    -1.011174    13.233918
  14 H      1.537328     3.212196     1.990549     1.746344
  15 H      2.353113     5.542109     1.850195     1.674872
  16 H      1.304191     7.164876     0.318033     1.691648
  17 H     -0.587020     6.484318    -1.129976     1.674643
  18 H     -2.602631     5.111291    -2.438030     1.675802
  19 H     -4.209509     3.411966    -3.254297     1.694097
  20 H     -4.177910     1.120955    -2.342172     1.672385
  21 H     -2.542776     0.461927    -0.610624     1.718761
  22 C      0.002902    -0.016456     0.436077    13.377880
  23 C      0.317253    -1.168896     1.148425    11.267496
  24 C      0.326554    -1.151002     2.540846    13.039034
  25 C      0.001122     0.018575     3.213470    12.552811
  26 C     -0.312649     1.153536     1.118743    11.293107
  27 C     -0.323580     1.170780     2.511187    13.018676
  28 H      0.003788    -0.030131    -0.647207     1.697053
  29 H      0.594362    -2.049749     3.083014     1.645493
  30 H      0.000484     0.032251     4.296935     1.641192
  31 H     -0.592088     2.082882     3.030220     1.648111
  32 N      0.642253    -2.354481     0.451632    12.164135
  33 C      0.008328    -3.583931     0.602333    11.550373
  34 C      0.608744    -4.517125    -0.263874    12.299515
  35 C      1.657007    -3.814917    -0.972415    12.321818
  36 C      1.644470    -2.487257    -0.505241    11.532245
  37 C     -1.068073    -3.928738     1.416103    13.292369
  38 C     -1.522546    -5.236694     1.358576    12.735615
  39 C     -0.928713    -6.180522     0.512304    12.974952
  40 C      0.133385    -5.826226    -0.303032    12.820536
  41 C      2.589553    -4.198685    -1.934010    12.825770
  42 C      3.490866    -3.260254    -2.408061    12.952136
  43 C      3.471895    -1.946695    -1.924217    12.734602
  44 C      2.555008    -1.540382    -0.968034    13.229725
  45 H     -1.538559    -3.201212     2.066261     1.741940
  46 H     -2.358848    -5.532352     1.981816     1.675542
  47 H     -1.309155    -7.194921     0.493503     1.692139
  48 H      0.587308    -6.554513    -0.965903     1.674016
  49 H      2.609216    -5.218388    -2.302361     1.674793
  50 H      4.221042    -3.542780    -3.157125     1.693651
  51 H      4.190777    -1.229352    -2.303296     1.671977
  52 H      2.552716    -0.524194    -0.593141     1.718321
