   52
Nonperiodic system
N      -0.637503     2.320861     0.391778    26.139698
C      -0.006540     3.555046     0.513606    26.953830
C      -0.606337     4.465081    -0.377303    28.898632
C      -1.651535     3.743457    -1.070675    29.000143
C      -1.637942     2.427978    -0.570258    26.833895
C       1.067005     3.922272     1.321304    31.394325
C       1.519070     5.229305     1.232326    29.889298
C       0.925709     6.150485     0.361140    30.549270
C      -0.133434     5.773739    -0.447938    30.035830
C      -2.582229     4.101250    -2.044001    30.028632
C      -3.480829     3.149648    -2.496473    30.523397
C      -3.461102     1.848791    -1.979535    29.788117
C      -2.545943     1.468277    -1.011174    31.251640
H       1.537328     3.212196     1.990549     3.720087
H       2.353113     5.542109     1.850195     3.389212
H       1.304191     7.164876     0.318033     3.447005
H      -0.587020     6.484318    -1.129976     3.434978
H      -2.602631     5.111291    -2.438030     3.438633
H      -4.209509     3.411966    -3.254297     3.452624
H      -4.177910     1.120955    -2.342172     3.382488
H      -2.542776     0.461927    -0.610624     3.628228
C       0.002902    -0.016456     0.436077    31.806048
C       0.317253    -1.168896     1.148425    26.170909
C       0.326554    -1.151002     2.540846    30.574892
C       0.001122     0.018575     3.213470    29.218812
C      -0.312649     1.153536     1.118743    26.241309
C      -0.323580     1.170780     2.511187    30.509660
H       0.003788    -0.030131    -0.647207     3.702772
H       0.594362    -2.049749     3.083014     3.414944
H       0.000484     0.032251     4.296935     3.272154
H      -0.592088     2.082882     3.030220     3.423949
N       0.642253    -2.354481     0.451632    26.199606
C       0.008328    -3.583931     0.602333    26.891806
C       0.608744    -4.517125    -0.263874    28.883193
C       1.657007    -3.814917    -0.972415    28.950608
C       1.644470    -2.487257    -0.505241    26.810131
C      -1.068073    -3.928738     1.416103    31.481977
C      -1.522546    -5.236694     1.358576    29.862569
C      -0.928713    -6.180522     0.512304    30.547319
C       0.133385    -5.826226    -0.303032    30.058971
C       2.589553    -4.198685    -1.934010    30.076742
C       3.490866    -3.260254    -2.408061    30.475657
C       3.471895    -1.946695    -1.924217    29.860854
C       2.555008    -1.540382    -0.968034    31.234506
H      -1.538559    -3.201212     2.066261     3.707371
H      -2.358848    -5.532352     1.981816     3.391100
H      -1.309155    -7.194921     0.493503     3.447876
H       0.587308    -6.554513    -0.965903     3.433937
H       2.609216    -5.218388    -2.302361     3.435689
H       4.221042    -3.542780    -3.157125     3.451241
H       4.190777    -1.229352    -2.303296     3.375180
H       2.552716    -0.524194    -0.593141     3.625642
  
Same information as above printed with atom number.
   1 N     -0.637503     2.320861     0.391778    26.139698
   2 C     -0.006540     3.555046     0.513606    26.953830
   3 C     -0.606337     4.465081    -0.377303    28.898632
   4 C     -1.651535     3.743457    -1.070675    29.000143
   5 C     -1.637942     2.427978    -0.570258    26.833895
   6 C      1.067005     3.922272     1.321304    31.394325
   7 C      1.519070     5.229305     1.232326    29.889298
   8 C      0.925709     6.150485     0.361140    30.549270
   9 C     -0.133434     5.773739    -0.447938    30.035830
  10 C     -2.582229     4.101250    -2.044001    30.028632
  11 C     -3.480829     3.149648    -2.496473    30.523397
  12 C     -3.461102     1.848791    -1.979535    29.788117
  13 C     -2.545943     1.468277    -1.011174    31.251640
  14 H      1.537328     3.212196     1.990549     3.720087
  15 H      2.353113     5.542109     1.850195     3.389212
  16 H      1.304191     7.164876     0.318033     3.447005
  17 H     -0.587020     6.484318    -1.129976     3.434978
  18 H     -2.602631     5.111291    -2.438030     3.438633
  19 H     -4.209509     3.411966    -3.254297     3.452624
  20 H     -4.177910     1.120955    -2.342172     3.382488
  21 H     -2.542776     0.461927    -0.610624     3.628228
  22 C      0.002902    -0.016456     0.436077    31.806048
  23 C      0.317253    -1.168896     1.148425    26.170909
  24 C      0.326554    -1.151002     2.540846    30.574892
  25 C      0.001122     0.018575     3.213470    29.218812
  26 C     -0.312649     1.153536     1.118743    26.241309
  27 C     -0.323580     1.170780     2.511187    30.509660
  28 H      0.003788    -0.030131    -0.647207     3.702772
  29 H      0.594362    -2.049749     3.083014     3.414944
  30 H      0.000484     0.032251     4.296935     3.272154
  31 H     -0.592088     2.082882     3.030220     3.423949
  32 N      0.642253    -2.354481     0.451632    26.199606
  33 C      0.008328    -3.583931     0.602333    26.891806
  34 C      0.608744    -4.517125    -0.263874    28.883193
  35 C      1.657007    -3.814917    -0.972415    28.950608
  36 C      1.644470    -2.487257    -0.505241    26.810131
  37 C     -1.068073    -3.928738     1.416103    31.481977
  38 C     -1.522546    -5.236694     1.358576    29.862569
  39 C     -0.928713    -6.180522     0.512304    30.547319
  40 C      0.133385    -5.826226    -0.303032    30.058971
  41 C      2.589553    -4.198685    -1.934010    30.076742
  42 C      3.490866    -3.260254    -2.408061    30.475657
  43 C      3.471895    -1.946695    -1.924217    29.860854
  44 C      2.555008    -1.540382    -0.968034    31.234506
  45 H     -1.538559    -3.201212     2.066261     3.707371
  46 H     -2.358848    -5.532352     1.981816     3.391100
  47 H     -1.309155    -7.194921     0.493503     3.447876
  48 H      0.587308    -6.554513    -0.965903     3.433937
  49 H      2.609216    -5.218388    -2.302361     3.435689
  50 H      4.221042    -3.542780    -3.157125     3.451241
  51 H      4.190777    -1.229352    -2.303296     3.375180
  52 H      2.552716    -0.524194    -0.593141     3.625642
