  109
Nonperiodic system
N      -0.002098     0.950410     0.381536    12.539986
C       1.054768     0.327316     1.081703    11.474294
C       2.266890     0.990850     1.283012    13.081133
C       3.308909     0.370995     1.951447    13.047321
C       3.154983    -0.912004     2.477508    11.496775
C       1.936825    -1.567241     2.295332    13.027882
C       0.909453    -0.965708     1.588288    13.101321
H       2.396505     1.993538     0.892862     1.700913
H       4.248367     0.893083     2.091322     1.684734
H       1.805741    -2.566608     2.693820     1.688920
H      -0.026266    -1.492617     1.442708     1.686876
C       0.270744     1.734416    -0.762786    11.488191
C      -0.382443     2.951405    -0.963388    13.102966
C      -0.117087     3.718771    -2.085344    13.014164
C       0.807590     3.290392    -3.037441    11.492201
C       1.461077     2.074451    -2.837341    13.029832
C       1.197046     1.306851    -1.715364    13.070870
H      -1.098353     3.299011    -0.227790     1.691760
H      -0.625954     4.665261    -2.226573     1.687952
H       2.177423     1.728786    -3.573581     1.680415
H       1.705958     0.360300    -1.575596     1.691425
C      -1.333853     0.809413     0.834480    11.478275
C      -2.374006     0.605406    -0.073843    13.076616
C      -3.680161     0.474277     0.366354    13.023081
C      -3.982813     0.543967     1.726192    11.492927
C      -2.943773     0.744274     2.634580    13.063183
C      -1.636627     0.874830     2.195264    13.080977
H      -2.151248     0.543726    -1.132646     1.692077
H      -4.478888     0.311467    -0.347936     1.681478
H      -3.167448     0.805057     3.693363     1.671396
H      -0.839653     1.038709     2.911106     1.693215
N       4.212956    -1.533550     3.183615    12.526260
C       4.938271    -0.795968     4.147054    11.429456
C       4.275564     0.090596     4.996530    13.508307
C       4.969741     0.842529     5.939988    11.433436
C       6.349898     0.680441     6.045087    13.174435
C       7.015108    -0.208445     5.209680    12.676997
C       6.323122    -0.938479     4.256070    13.245819
H       3.198790     0.193970     4.912478     1.758960
H       6.904499     1.250469     6.782977     1.732494
H       8.089776    -0.326509     5.293797     1.677496
H       6.845268    -1.623672     3.599117     1.711912
C       4.234156     1.820695     6.818870    13.732286
H       4.107507     2.779854     6.306895     1.688081
H       3.238987     1.451821     7.077147     1.684367
H       4.779284     2.008991     7.746056     1.700792
C       4.527041    -2.886712     2.929194    11.421346
C       4.875274    -3.744625     3.975545    13.180405
C       5.186174    -5.071642     3.717444    12.658565
C       5.135899    -5.571427     2.421432    12.910373
C       4.778658    -4.722419     1.380687    12.670235
C       4.485144    -3.388980     1.626198    13.197306
H       4.904582    -3.362814     4.989211     1.711368
H       5.456312    -5.723277     4.540955     1.685945
H       5.371717    -6.610615     2.224946     1.702019
H       4.739905    -5.096145     0.363536     1.678661
H       4.217070    -2.728147     0.810251     1.717255
N       1.079385     4.075042    -4.184747    12.550345
C       2.418318     4.282219    -4.587528    11.423548
C       3.412216     4.496086    -3.631683    13.502329
C       4.741570     4.680616    -4.000275    11.441103
C       5.070415     4.674638    -5.354556    13.171245
C       4.084241     4.473801    -6.312414    12.671104
C       2.765143     4.267125    -5.940120    13.261173
H       3.137667     4.513535    -2.582157     1.763585
H       6.100188     4.828097    -5.659515     1.731627
H       4.347618     4.465801    -7.364313     1.677392
H       2.000054     4.099962    -6.688684     1.709997
C       5.800782     4.869370    -2.945428    13.699537
H       6.155234     3.901424    -2.577218     1.688821
H       6.663236     5.409663    -3.341109     1.706185
H       5.413466     5.425516    -2.088786     1.689043
C       0.011053     4.642289    -4.913495    11.405723
C      -1.171164     3.923552    -5.108296    13.188640
C      -2.226216     4.488533    -5.809789    12.688669
C      -2.116465     5.766817    -6.344070    12.908877
C      -0.937906     6.480131    -6.159036    12.676920
C       0.115366     5.931407    -5.442191    13.181877
H      -1.257397     2.922297    -4.702875     1.718583
H      -3.136938     3.917058    -5.950517     1.674921
H      -2.939674     6.202245    -6.898032     1.702062
H      -0.839485     7.481109    -6.564183     1.676773
H       1.027543     6.496362    -5.290804     1.710363
N      -5.320622     0.417197     2.173711    12.529308
C      -6.347042     1.131138     1.514574    11.428460
C      -6.120267     2.433550     1.068526    13.522651
C      -7.107006     3.149730     0.396822    11.423551
C      -8.349762     2.553178     0.193929    13.183956
C      -8.586712     1.260575     0.645778    12.666394
C      -7.594091     0.542304     1.293402    13.255319
H      -5.152408     2.890095     1.247458     1.758297
H      -9.133479     3.101432    -0.318057     1.734073
H      -9.554681     0.800465     0.480670     1.679731
H      -7.778064    -0.469256     1.634822     1.710602
C      -6.820403     4.540278    -0.107779    13.727757
H      -6.294213     4.502201    -1.066805     1.684367
H      -7.741994     5.106544    -0.256557     1.702213
H      -6.189290     5.093730     0.591366     1.685615
C      -5.612288    -0.407248     3.282561    11.416874
C      -4.950042    -1.626205     3.448551    13.194028
C      -5.224182    -2.427609     4.547126    12.675506
C      -6.172609    -2.040163     5.486254    12.907147
C      -6.838962    -0.831978     5.318328    12.662774
C      -6.557521    -0.014387     4.233529    13.177623
H      -4.217513    -1.937492     2.713147     1.718079
H      -4.699812    -3.369817     4.661268     1.676146
H      -6.389675    -2.672090     6.339284     1.701746
H      -7.576661    -0.512700     6.046086     1.685008
H      -7.071265     0.932120     4.113822     1.712682
  
Same information as above printed with atom number.
   1 N     -0.002098     0.950410     0.381536    12.539986
   2 C      1.054768     0.327316     1.081703    11.474294
   3 C      2.266890     0.990850     1.283012    13.081133
   4 C      3.308909     0.370995     1.951447    13.047321
   5 C      3.154983    -0.912004     2.477508    11.496775
   6 C      1.936825    -1.567241     2.295332    13.027882
   7 C      0.909453    -0.965708     1.588288    13.101321
   8 H      2.396505     1.993538     0.892862     1.700913
   9 H      4.248367     0.893083     2.091322     1.684734
  10 H      1.805741    -2.566608     2.693820     1.688920
  11 H     -0.026266    -1.492617     1.442708     1.686876
  12 C      0.270744     1.734416    -0.762786    11.488191
  13 C     -0.382443     2.951405    -0.963388    13.102966
  14 C     -0.117087     3.718771    -2.085344    13.014164
  15 C      0.807590     3.290392    -3.037441    11.492201
  16 C      1.461077     2.074451    -2.837341    13.029832
  17 C      1.197046     1.306851    -1.715364    13.070870
  18 H     -1.098353     3.299011    -0.227790     1.691760
  19 H     -0.625954     4.665261    -2.226573     1.687952
  20 H      2.177423     1.728786    -3.573581     1.680415
  21 H      1.705958     0.360300    -1.575596     1.691425
  22 C     -1.333853     0.809413     0.834480    11.478275
  23 C     -2.374006     0.605406    -0.073843    13.076616
  24 C     -3.680161     0.474277     0.366354    13.023081
  25 C     -3.982813     0.543967     1.726192    11.492927
  26 C     -2.943773     0.744274     2.634580    13.063183
  27 C     -1.636627     0.874830     2.195264    13.080977
  28 H     -2.151248     0.543726    -1.132646     1.692077
  29 H     -4.478888     0.311467    -0.347936     1.681478
  30 H     -3.167448     0.805057     3.693363     1.671396
  31 H     -0.839653     1.038709     2.911106     1.693215
  32 N      4.212956    -1.533550     3.183615    12.526260
  33 C      4.938271    -0.795968     4.147054    11.429456
  34 C      4.275564     0.090596     4.996530    13.508307
  35 C      4.969741     0.842529     5.939988    11.433436
  36 C      6.349898     0.680441     6.045087    13.174435
  37 C      7.015108    -0.208445     5.209680    12.676997
  38 C      6.323122    -0.938479     4.256070    13.245819
  39 H      3.198790     0.193970     4.912478     1.758960
  40 H      6.904499     1.250469     6.782977     1.732494
  41 H      8.089776    -0.326509     5.293797     1.677496
  42 H      6.845268    -1.623672     3.599117     1.711912
  43 C      4.234156     1.820695     6.818870    13.732286
  44 H      4.107507     2.779854     6.306895     1.688081
  45 H      3.238987     1.451821     7.077147     1.684367
  46 H      4.779284     2.008991     7.746056     1.700792
  47 C      4.527041    -2.886712     2.929194    11.421346
  48 C      4.875274    -3.744625     3.975545    13.180405
  49 C      5.186174    -5.071642     3.717444    12.658565
  50 C      5.135899    -5.571427     2.421432    12.910373
  51 C      4.778658    -4.722419     1.380687    12.670235
  52 C      4.485144    -3.388980     1.626198    13.197306
  53 H      4.904582    -3.362814     4.989211     1.711368
  54 H      5.456312    -5.723277     4.540955     1.685945
  55 H      5.371717    -6.610615     2.224946     1.702019
  56 H      4.739905    -5.096145     0.363536     1.678661
  57 H      4.217070    -2.728147     0.810251     1.717255
  58 N      1.079385     4.075042    -4.184747    12.550345
  59 C      2.418318     4.282219    -4.587528    11.423548
  60 C      3.412216     4.496086    -3.631683    13.502329
  61 C      4.741570     4.680616    -4.000275    11.441103
  62 C      5.070415     4.674638    -5.354556    13.171245
  63 C      4.084241     4.473801    -6.312414    12.671104
  64 C      2.765143     4.267125    -5.940120    13.261173
  65 H      3.137667     4.513535    -2.582157     1.763585
  66 H      6.100188     4.828097    -5.659515     1.731627
  67 H      4.347618     4.465801    -7.364313     1.677392
  68 H      2.000054     4.099962    -6.688684     1.709997
  69 C      5.800782     4.869370    -2.945428    13.699537
  70 H      6.155234     3.901424    -2.577218     1.688821
  71 H      6.663236     5.409663    -3.341109     1.706185
  72 H      5.413466     5.425516    -2.088786     1.689043
  73 C      0.011053     4.642289    -4.913495    11.405723
  74 C     -1.171164     3.923552    -5.108296    13.188640
  75 C     -2.226216     4.488533    -5.809789    12.688669
  76 C     -2.116465     5.766817    -6.344070    12.908877
  77 C     -0.937906     6.480131    -6.159036    12.676920
  78 C      0.115366     5.931407    -5.442191    13.181877
  79 H     -1.257397     2.922297    -4.702875     1.718583
  80 H     -3.136938     3.917058    -5.950517     1.674921
  81 H     -2.939674     6.202245    -6.898032     1.702062
  82 H     -0.839485     7.481109    -6.564183     1.676773
  83 H      1.027543     6.496362    -5.290804     1.710363
  84 N     -5.320622     0.417197     2.173711    12.529308
  85 C     -6.347042     1.131138     1.514574    11.428460
  86 C     -6.120267     2.433550     1.068526    13.522651
  87 C     -7.107006     3.149730     0.396822    11.423551
  88 C     -8.349762     2.553178     0.193929    13.183956
  89 C     -8.586712     1.260575     0.645778    12.666394
  90 C     -7.594091     0.542304     1.293402    13.255319
  91 H     -5.152408     2.890095     1.247458     1.758297
  92 H     -9.133479     3.101432    -0.318057     1.734073
  93 H     -9.554681     0.800465     0.480670     1.679731
  94 H     -7.778064    -0.469256     1.634822     1.710602
  95 C     -6.820403     4.540278    -0.107779    13.727757
  96 H     -6.294213     4.502201    -1.066805     1.684367
  97 H     -7.741994     5.106544    -0.256557     1.702213
  98 H     -6.189290     5.093730     0.591366     1.685615
  99 C     -5.612288    -0.407248     3.282561    11.416874
 100 C     -4.950042    -1.626205     3.448551    13.194028
 101 C     -5.224182    -2.427609     4.547126    12.675506
 102 C     -6.172609    -2.040163     5.486254    12.907147
 103 C     -6.838962    -0.831978     5.318328    12.662774
 104 C     -6.557521    -0.014387     4.233529    13.177623
 105 H     -4.217513    -1.937492     2.713147     1.718079
 106 H     -4.699812    -3.369817     4.661268     1.676146
 107 H     -6.389675    -2.672090     6.339284     1.701746
 108 H     -7.576661    -0.512700     6.046086     1.685008
 109 H     -7.071265     0.932120     4.113822     1.712682
