   65
Nonperiodic system
N      -2.579885     0.664343    -0.382095    12.110016
C      -3.751894    -0.033641    -0.672295    11.528768
C      -4.715379     0.270183     0.306615    12.291962
C      -4.095732     1.194884     1.232732    12.317402
C      -2.782665     1.411708     0.776419    11.533823
C      -4.013726    -0.933320    -1.703326    13.303717
C      -5.274133    -1.508248    -1.746468    12.742120
C      -6.249878    -1.204562    -0.790391    12.935888
C      -5.975272    -0.320690     0.240150    12.791764
C      -4.544833     1.850686     2.376822    12.789086
C      -3.684101     2.709398     3.040047    12.953748
C      -2.385772     2.924568     2.564104    12.698028
C      -1.916046     2.285157     1.427725    13.197862
H      -3.264518    -1.185615    -2.444490     1.886617
H      -5.503914    -2.211960    -2.538554     1.700529
H      -7.225724    -1.670815    -0.856087     1.686818
H      -6.727161    -0.093780     0.987660     1.667567
H      -5.554669     1.692793     2.738640     1.669528
H      -4.017764     3.225796     3.932166     1.681772
H      -1.731687     3.609233     3.091535     1.661616
H      -0.914643     2.470719     1.059121     1.706099
C      -0.182866     0.277747    -0.510399    13.264793
C       0.979823     0.151000    -1.264148    11.165681
C       0.935874     0.299690    -2.649867    13.138678
C      -0.271564     0.628731    -3.238764    12.669814
C      -1.391466     0.584440    -1.131748    11.149720
C      -1.433877     0.797004    -2.504033    13.160472
H      -0.149342     0.130336     0.562105     1.703510
H       1.823354     0.163202    -3.255380     1.666346
H      -2.359593     1.086980    -2.984620     1.704641
N       2.197878    -0.161204    -0.630240    12.124365
C       3.390786     0.548214    -0.771136    11.560575
C       4.376802    -0.057978     0.028071    12.300982
C       3.752296    -1.189507     0.680125    12.309984
C       2.412876    -1.220467     0.250577    11.551973
C       3.655726     1.692924    -1.518094    13.185892
C       4.940246     2.210445    -1.462353    12.689536
C       5.936337     1.613112    -0.681713    12.942365
C       5.660370     0.482016     0.068210    12.810461
C       4.217216    -2.164131     1.560132    12.794493
C       3.346453    -3.151362     1.990922    12.951293
C       2.021491    -3.176870     1.541850    12.691502
C       1.535367    -2.218649     0.666125    13.242274
H       2.891710     2.168254    -2.120831     1.703262
H       5.174681     3.098709    -2.037429     1.659414
H       6.930228     2.044129    -0.663402     1.684769
H       6.429104     0.023718     0.680320     1.671317
H       5.247326    -2.150323     1.898265     1.670163
H       3.692567    -3.915135     2.677076     1.686433
H       1.358317    -3.963639     1.882602     1.679896
H       0.511295    -2.255704     0.315414     1.714766
S      -0.376762     0.747026    -5.024539    20.767331
C      -1.184583    -0.798164    -5.423465    12.825423
C      -2.570720    -0.829046    -5.509211    12.697595
C      -0.414342    -1.942706    -5.580882    12.690706
C      -3.198784    -2.043758    -5.751109    12.527789
H      -3.139113     0.087373    -5.405750     1.652348
C      -1.054374    -3.150176    -5.825005    12.519311
H       0.665810    -1.880080    -5.526602     1.619296
C      -2.442051    -3.200451    -5.903720    12.542219
H      -4.278932    -2.084217    -5.826887     1.644704
H      -0.468858    -4.052224    -5.956359     1.648386
H      -2.936289    -4.146426    -6.092504     1.657556
O      -1.295730     1.824118    -5.346864    13.138245
O       0.978710     0.709211    -5.544775    13.130174
  
Same information as above printed with atom number.
   1 N     -2.579885     0.664343    -0.382095    12.110016
   2 C     -3.751894    -0.033641    -0.672295    11.528768
   3 C     -4.715379     0.270183     0.306615    12.291962
   4 C     -4.095732     1.194884     1.232732    12.317402
   5 C     -2.782665     1.411708     0.776419    11.533823
   6 C     -4.013726    -0.933320    -1.703326    13.303717
   7 C     -5.274133    -1.508248    -1.746468    12.742120
   8 C     -6.249878    -1.204562    -0.790391    12.935888
   9 C     -5.975272    -0.320690     0.240150    12.791764
  10 C     -4.544833     1.850686     2.376822    12.789086
  11 C     -3.684101     2.709398     3.040047    12.953748
  12 C     -2.385772     2.924568     2.564104    12.698028
  13 C     -1.916046     2.285157     1.427725    13.197862
  14 H     -3.264518    -1.185615    -2.444490     1.886617
  15 H     -5.503914    -2.211960    -2.538554     1.700529
  16 H     -7.225724    -1.670815    -0.856087     1.686818
  17 H     -6.727161    -0.093780     0.987660     1.667567
  18 H     -5.554669     1.692793     2.738640     1.669528
  19 H     -4.017764     3.225796     3.932166     1.681772
  20 H     -1.731687     3.609233     3.091535     1.661616
  21 H     -0.914643     2.470719     1.059121     1.706099
  22 C     -0.182866     0.277747    -0.510399    13.264793
  23 C      0.979823     0.151000    -1.264148    11.165681
  24 C      0.935874     0.299690    -2.649867    13.138678
  25 C     -0.271564     0.628731    -3.238764    12.669814
  26 C     -1.391466     0.584440    -1.131748    11.149720
  27 C     -1.433877     0.797004    -2.504033    13.160472
  28 H     -0.149342     0.130336     0.562105     1.703510
  29 H      1.823354     0.163202    -3.255380     1.666346
  30 H     -2.359593     1.086980    -2.984620     1.704641
  31 N      2.197878    -0.161204    -0.630240    12.124365
  32 C      3.390786     0.548214    -0.771136    11.560575
  33 C      4.376802    -0.057978     0.028071    12.300982
  34 C      3.752296    -1.189507     0.680125    12.309984
  35 C      2.412876    -1.220467     0.250577    11.551973
  36 C      3.655726     1.692924    -1.518094    13.185892
  37 C      4.940246     2.210445    -1.462353    12.689536
  38 C      5.936337     1.613112    -0.681713    12.942365
  39 C      5.660370     0.482016     0.068210    12.810461
  40 C      4.217216    -2.164131     1.560132    12.794493
  41 C      3.346453    -3.151362     1.990922    12.951293
  42 C      2.021491    -3.176870     1.541850    12.691502
  43 C      1.535367    -2.218649     0.666125    13.242274
  44 H      2.891710     2.168254    -2.120831     1.703262
  45 H      5.174681     3.098709    -2.037429     1.659414
  46 H      6.930228     2.044129    -0.663402     1.684769
  47 H      6.429104     0.023718     0.680320     1.671317
  48 H      5.247326    -2.150323     1.898265     1.670163
  49 H      3.692567    -3.915135     2.677076     1.686433
  50 H      1.358317    -3.963639     1.882602     1.679896
  51 H      0.511295    -2.255704     0.315414     1.714766
  52 S     -0.376762     0.747026    -5.024539    20.767331
  53 C     -1.184583    -0.798164    -5.423465    12.825423
  54 C     -2.570720    -0.829046    -5.509211    12.697595
  55 C     -0.414342    -1.942706    -5.580882    12.690706
  56 C     -3.198784    -2.043758    -5.751109    12.527789
  57 H     -3.139113     0.087373    -5.405750     1.652348
  58 C     -1.054374    -3.150176    -5.825005    12.519311
  59 H      0.665810    -1.880080    -5.526602     1.619296
  60 C     -2.442051    -3.200451    -5.903720    12.542219
  61 H     -4.278932    -2.084217    -5.826887     1.644704
  62 H     -0.468858    -4.052224    -5.956359     1.648386
  63 H     -2.936289    -4.146426    -6.092504     1.657556
  64 O     -1.295730     1.824118    -5.346864    13.138245
  65 O      0.978710     0.709211    -5.544775    13.130174
