  119
Nonperiodic system
C      -1.262587    -1.831964     0.194864    27.950049
C      -2.531278    -1.258564     0.062805    31.564562
H      -2.637538    -0.187467    -0.075366     3.932125
C      -3.647437    -2.070704     0.081681    28.573188
C      -3.533466    -3.455141     0.227204    28.263956
C      -2.279119    -4.037103     0.356544    30.071457
H      -2.171621    -5.109458     0.477806     3.447349
C      -1.156007    -3.221179     0.340290    30.493214
H      -0.173705    -3.663470     0.464757     3.563207
C      -5.106479    -1.660969    -0.048659    27.980100
C      -4.880914    -4.039369     0.209100    28.207387
C      -5.809680    -3.006352     0.049465    28.679512
C      -7.166398    -3.270544    -0.001517    30.504171
H      -7.880145    -2.463166    -0.125767     3.557721
C      -7.593232    -4.590873     0.109645    29.756974
H      -8.652383    -4.818768     0.072147     3.415295
C      -6.671222    -5.623492     0.268787    30.036271
H      -7.022100    -6.645797     0.353669     3.422579
C      -5.307447    -5.356934     0.319726    30.286960
H      -4.593457    -6.163894     0.443652     3.499915
C      -5.946161     0.355814    -1.048300    28.224924
C      -5.410635    -0.903555    -1.332310    28.616777
C      -5.215559    -1.316618    -2.637972    30.355203
H      -4.797941    -2.295193    -2.849291     3.543087
C      -5.564768    -0.450569    -3.670055    29.766067
H      -5.419160    -0.755096    -4.700183     3.408905
C      -6.099281     0.805893    -3.391720    29.943302
H      -6.364935     1.467304    -4.208643     3.441927
C      -6.294479     1.219966    -2.078780    30.313615
H      -6.710213     2.199090    -1.867017     3.493968
C      -5.548120    -0.659780     1.007922    28.686834
C      -6.031412     0.508091     0.411186    28.165725
C      -6.484836     1.561770     1.194936    30.334275
H      -6.861191     2.471480     0.739784     3.490021
C      -6.447268     1.429079     2.578621    30.013078
H      -6.797292     2.241231     3.205778     3.436120
C      -5.964522     0.262819     3.169174    29.808187
H      -5.943409     0.177949     4.249697     3.412806
C      -5.509977    -0.793064     2.384307    30.455901
H      -5.132957    -1.702971     2.838963     3.553055
C      -0.047513    -0.982102     0.184355    27.874615
C       1.099275    -1.391514    -0.503726    31.636595
H       1.102160    -2.323749    -1.059209     3.920108
C       2.219958    -0.585778    -0.493118    28.593579
C       2.229567     0.633138     0.189859    28.181374
C       1.096198     1.052142     0.874673    30.068296
H       1.087548     1.991518     1.416575     3.443927
C      -0.030672     0.241244     0.866521    30.534614
H      -0.912445     0.548320     1.418095     3.555531
C       3.559196    -0.834563    -1.169839    27.879291
C       3.548231     1.253845     0.017204    28.213171
C       4.334549     0.412873    -0.774603    28.622405
C       5.633982     0.745570    -1.100419    31.583463
H       6.237986     0.068948    -1.696240     3.930833
C       6.173258     1.947946    -0.631714    27.883830
C       5.378885     2.786205     0.161097    30.587186
H       5.789804     3.728604     0.506162     3.547700
C       4.072730     2.449783     0.490099    30.055038
H       3.474840     3.118532     1.099564     3.447543
C       4.469319    -2.954559    -1.838975    28.189149
C       4.226143    -2.130942    -0.736280    28.545362
C       4.578924    -2.527852     0.541024    30.382975
H       4.387521    -1.881654     1.391021     3.536222
C       5.183923    -3.770009     0.709454    29.785666
H       5.469144    -4.099140     1.702151     3.396223
C       5.428141    -4.594733    -0.386945    30.073471
H       5.900922    -5.558732    -0.236601     3.419993
C       5.073158    -4.194295    -1.670346    30.266493
H       5.265620    -4.839420    -2.520706     3.496342
C       3.455695    -1.032830    -2.674299    28.582442
C       3.989885    -2.269243    -3.047792    28.157375
C       3.999440    -2.656228    -4.382002    30.294897
H       4.411788    -3.614000    -4.680342     3.499702
C       3.468385    -1.790632    -5.331846    29.994195
H       3.466796    -2.076476    -6.377655     3.434440
C       2.936535    -0.559061    -4.954661    29.806122
H       2.525765     0.101568    -5.709619     3.399714
C       2.926828    -0.170813    -3.618052    30.383775
H       2.513083     0.786327    -3.319018     3.534969
C       7.565328     2.330720    -0.969975    27.947426
C       8.395960     2.910248    -0.005620    31.567689
H       8.037549     3.062117     1.007350     3.933421
C       9.686773     3.261979    -0.345878    28.622416
C      10.180312     3.047245    -1.634757    28.216430
C       9.366250     2.470295    -2.600826    30.111576
H       9.729739     2.302603    -3.608777     3.443756
C       8.067055     2.118468    -2.260561    30.487755
H       7.416023     1.689177    -3.014174     3.565242
C      10.749474     3.894667     0.539503    27.963945
C      11.570386     3.518745    -1.687345    28.216736
C      11.917268     4.016598    -0.427608    28.716258
C      13.178813     4.530566    -0.188018    30.467366
H      13.439643     4.914557     0.792420     3.557424
C      14.102465     4.543452    -1.229432    29.763973
H      15.096515     4.942123    -1.061946     3.417889
C      13.761211     4.048164    -2.486419    30.002655
H      14.493612     4.066245    -3.285608     3.426927
C      12.492724     3.531529    -2.726292    30.301989
H      12.231665     3.147011    -3.706258     3.499343
C      10.374498     5.165271     2.543617    28.213459
C      10.316643     5.219764     1.148171    28.641204
C       9.903353     6.367971     0.496682    30.428630
H       9.861372     6.401227    -0.586792     3.555872
C       9.544192     7.475039     1.260194    29.819599
H       9.218082     8.384614     0.768771     3.413788
C       9.600366     7.425339     2.651708    30.001716
H       9.317024     8.297413     3.230198     3.428238
C      10.015793     6.270407     3.305271    30.291021
H      10.057693     6.236397     4.388533     3.502251
C      11.067564     3.077658     1.782510    28.606955
C      10.843187     3.829428     2.939221    28.194775
C      11.067572     3.274130     4.192714    30.261751
H      10.895415     3.850467     5.095253     3.506943
C      11.517860     1.960872     4.269988    29.999061
H      11.697804     1.511000     5.239844     3.426894
C      11.739963     1.215120     3.113947    29.796165
H      12.090160     0.192405     3.194639     3.396154
C      11.515177     1.770995     1.857922    30.377741
H      11.685325     1.194307     0.955056     3.543806
  
Same information as above printed with atom number.
   1 C     -1.262587    -1.831964     0.194864    27.950049
   2 C     -2.531278    -1.258564     0.062805    31.564562
   3 H     -2.637538    -0.187467    -0.075366     3.932125
   4 C     -3.647437    -2.070704     0.081681    28.573188
   5 C     -3.533466    -3.455141     0.227204    28.263956
   6 C     -2.279119    -4.037103     0.356544    30.071457
   7 H     -2.171621    -5.109458     0.477806     3.447349
   8 C     -1.156007    -3.221179     0.340290    30.493214
   9 H     -0.173705    -3.663470     0.464757     3.563207
  10 C     -5.106479    -1.660969    -0.048659    27.980100
  11 C     -4.880914    -4.039369     0.209100    28.207387
  12 C     -5.809680    -3.006352     0.049465    28.679512
  13 C     -7.166398    -3.270544    -0.001517    30.504171
  14 H     -7.880145    -2.463166    -0.125767     3.557721
  15 C     -7.593232    -4.590873     0.109645    29.756974
  16 H     -8.652383    -4.818768     0.072147     3.415295
  17 C     -6.671222    -5.623492     0.268787    30.036271
  18 H     -7.022100    -6.645797     0.353669     3.422579
  19 C     -5.307447    -5.356934     0.319726    30.286960
  20 H     -4.593457    -6.163894     0.443652     3.499915
  21 C     -5.946161     0.355814    -1.048300    28.224924
  22 C     -5.410635    -0.903555    -1.332310    28.616777
  23 C     -5.215559    -1.316618    -2.637972    30.355203
  24 H     -4.797941    -2.295193    -2.849291     3.543087
  25 C     -5.564768    -0.450569    -3.670055    29.766067
  26 H     -5.419160    -0.755096    -4.700183     3.408905
  27 C     -6.099281     0.805893    -3.391720    29.943302
  28 H     -6.364935     1.467304    -4.208643     3.441927
  29 C     -6.294479     1.219966    -2.078780    30.313615
  30 H     -6.710213     2.199090    -1.867017     3.493968
  31 C     -5.548120    -0.659780     1.007922    28.686834
  32 C     -6.031412     0.508091     0.411186    28.165725
  33 C     -6.484836     1.561770     1.194936    30.334275
  34 H     -6.861191     2.471480     0.739784     3.490021
  35 C     -6.447268     1.429079     2.578621    30.013078
  36 H     -6.797292     2.241231     3.205778     3.436120
  37 C     -5.964522     0.262819     3.169174    29.808187
  38 H     -5.943409     0.177949     4.249697     3.412806
  39 C     -5.509977    -0.793064     2.384307    30.455901
  40 H     -5.132957    -1.702971     2.838963     3.553055
  41 C     -0.047513    -0.982102     0.184355    27.874615
  42 C      1.099275    -1.391514    -0.503726    31.636595
  43 H      1.102160    -2.323749    -1.059209     3.920108
  44 C      2.219958    -0.585778    -0.493118    28.593579
  45 C      2.229567     0.633138     0.189859    28.181374
  46 C      1.096198     1.052142     0.874673    30.068296
  47 H      1.087548     1.991518     1.416575     3.443927
  48 C     -0.030672     0.241244     0.866521    30.534614
  49 H     -0.912445     0.548320     1.418095     3.555531
  50 C      3.559196    -0.834563    -1.169839    27.879291
  51 C      3.548231     1.253845     0.017204    28.213171
  52 C      4.334549     0.412873    -0.774603    28.622405
  53 C      5.633982     0.745570    -1.100419    31.583463
  54 H      6.237986     0.068948    -1.696240     3.930833
  55 C      6.173258     1.947946    -0.631714    27.883830
  56 C      5.378885     2.786205     0.161097    30.587186
  57 H      5.789804     3.728604     0.506162     3.547700
  58 C      4.072730     2.449783     0.490099    30.055038
  59 H      3.474840     3.118532     1.099564     3.447543
  60 C      4.469319    -2.954559    -1.838975    28.189149
  61 C      4.226143    -2.130942    -0.736280    28.545362
  62 C      4.578924    -2.527852     0.541024    30.382975
  63 H      4.387521    -1.881654     1.391021     3.536222
  64 C      5.183923    -3.770009     0.709454    29.785666
  65 H      5.469144    -4.099140     1.702151     3.396223
  66 C      5.428141    -4.594733    -0.386945    30.073471
  67 H      5.900922    -5.558732    -0.236601     3.419993
  68 C      5.073158    -4.194295    -1.670346    30.266493
  69 H      5.265620    -4.839420    -2.520706     3.496342
  70 C      3.455695    -1.032830    -2.674299    28.582442
  71 C      3.989885    -2.269243    -3.047792    28.157375
  72 C      3.999440    -2.656228    -4.382002    30.294897
  73 H      4.411788    -3.614000    -4.680342     3.499702
  74 C      3.468385    -1.790632    -5.331846    29.994195
  75 H      3.466796    -2.076476    -6.377655     3.434440
  76 C      2.936535    -0.559061    -4.954661    29.806122
  77 H      2.525765     0.101568    -5.709619     3.399714
  78 C      2.926828    -0.170813    -3.618052    30.383775
  79 H      2.513083     0.786327    -3.319018     3.534969
  80 C      7.565328     2.330720    -0.969975    27.947426
  81 C      8.395960     2.910248    -0.005620    31.567689
  82 H      8.037549     3.062117     1.007350     3.933421
  83 C      9.686773     3.261979    -0.345878    28.622416
  84 C     10.180312     3.047245    -1.634757    28.216430
  85 C      9.366250     2.470295    -2.600826    30.111576
  86 H      9.729739     2.302603    -3.608777     3.443756
  87 C      8.067055     2.118468    -2.260561    30.487755
  88 H      7.416023     1.689177    -3.014174     3.565242
  89 C     10.749474     3.894667     0.539503    27.963945
  90 C     11.570386     3.518745    -1.687345    28.216736
  91 C     11.917268     4.016598    -0.427608    28.716258
  92 C     13.178813     4.530566    -0.188018    30.467366
  93 H     13.439643     4.914557     0.792420     3.557424
  94 C     14.102465     4.543452    -1.229432    29.763973
  95 H     15.096515     4.942123    -1.061946     3.417889
  96 C     13.761211     4.048164    -2.486419    30.002655
  97 H     14.493612     4.066245    -3.285608     3.426927
  98 C     12.492724     3.531529    -2.726292    30.301989
  99 H     12.231665     3.147011    -3.706258     3.499343
 100 C     10.374498     5.165271     2.543617    28.213459
 101 C     10.316643     5.219764     1.148171    28.641204
 102 C      9.903353     6.367971     0.496682    30.428630
 103 H      9.861372     6.401227    -0.586792     3.555872
 104 C      9.544192     7.475039     1.260194    29.819599
 105 H      9.218082     8.384614     0.768771     3.413788
 106 C      9.600366     7.425339     2.651708    30.001716
 107 H      9.317024     8.297413     3.230198     3.428238
 108 C     10.015793     6.270407     3.305271    30.291021
 109 H     10.057693     6.236397     4.388533     3.502251
 110 C     11.067564     3.077658     1.782510    28.606955
 111 C     10.843187     3.829428     2.939221    28.194775
 112 C     11.067572     3.274130     4.192714    30.261751
 113 H     10.895415     3.850467     5.095253     3.506943
 114 C     11.517860     1.960872     4.269988    29.999061
 115 H     11.697804     1.511000     5.239844     3.426894
 116 C     11.739963     1.215120     3.113947    29.796165
 117 H     12.090160     0.192405     3.194639     3.396154
 118 C     11.515177     1.770995     1.857922    30.377741
 119 H     11.685325     1.194307     0.955056     3.543806
