  119
Nonperiodic system
C      -1.262587    -1.831964     0.194864    11.925686
C      -2.531278    -1.258564     0.062805    13.188681
H      -2.637538    -0.187467    -0.075366     1.782824
C      -3.647437    -2.070704     0.081681    12.078575
C      -3.533466    -3.455141     0.227204    12.086427
C      -2.279119    -4.037103     0.356544    12.849702
H      -2.171621    -5.109458     0.477806     1.683930
C      -1.156007    -3.221179     0.340290    12.957605
H      -0.173705    -3.663470     0.464757     1.713168
C      -5.106479    -1.660969    -0.048659    11.879093
C      -4.880914    -4.039369     0.209100    12.062354
C      -5.809680    -3.006352     0.049465    12.115546
C      -7.166398    -3.270544    -0.001517    12.920526
H      -7.880145    -2.463166    -0.125767     1.693663
C      -7.593232    -4.590873     0.109645    12.734257
H      -8.652383    -4.818768     0.072147     1.687672
C      -6.671222    -5.623492     0.268787    12.801510
H      -7.022100    -6.645797     0.353669     1.685737
C      -5.307447    -5.356934     0.319726    12.906064
H      -4.593457    -6.163894     0.443652     1.698692
C      -5.946161     0.355814    -1.048300    12.074002
C      -5.410635    -0.903555    -1.332310    12.103129
C      -5.215559    -1.316618    -2.637972    12.883232
H      -4.797941    -2.295193    -2.849291     1.689231
C      -5.564768    -0.450569    -3.670055    12.739938
H      -5.419160    -0.755096    -4.700183     1.685105
C      -6.099281     0.805893    -3.391720    12.773183
H      -6.364935     1.467304    -4.208643     1.694462
C      -6.294479     1.219966    -2.078780    12.913535
H      -6.710213     2.199090    -1.867017     1.694482
C      -5.548120    -0.659780     1.007922    12.116089
C      -6.031412     0.508091     0.411186    12.048201
C      -6.484836     1.561770     1.194936    12.921504
H      -6.861191     2.471480     0.739784     1.692699
C      -6.447268     1.429079     2.578621    12.795766
H      -6.797292     2.241231     3.205778     1.691925
C      -5.964522     0.262819     3.169174    12.750103
H      -5.943409     0.177949     4.249697     1.686247
C      -5.509977    -0.793064     2.384307    12.908525
H      -5.132957    -1.702971     2.838963     1.692040
C      -0.047513    -0.982102     0.184355    11.899776
C       1.099275    -1.391514    -0.503726    13.210790
H       1.102160    -2.323749    -1.059209     1.779367
C       2.219958    -0.585778    -0.493118    12.090622
C       2.229567     0.633138     0.189859    12.063317
C       1.096198     1.052142     0.874673    12.848163
H       1.087548     1.991518     1.416575     1.683389
C      -0.030672     0.241244     0.866521    12.969067
H      -0.912445     0.548320     1.418095     1.710357
C       3.559196    -0.834563    -1.169839    11.850029
C       3.548231     1.253845     0.017204    12.073101
C       4.334549     0.412873    -0.774603    12.099781
C       5.633982     0.745570    -1.100419    13.193127
H       6.237986     0.068948    -1.696240     1.783178
C       6.173258     1.947946    -0.631714    11.899726
C       5.378885     2.786205     0.161097    12.986911
H       5.789804     3.728604     0.506162     1.702500
C       4.072730     2.449783     0.490099    12.843782
H       3.474840     3.118532     1.099564     1.684183
C       4.469319    -2.954559    -1.838975    12.066226
C       4.226143    -2.130942    -0.736280    12.082276
C       4.578924    -2.527852     0.541024    12.890813
H       4.387521    -1.881654     1.391021     1.687477
C       5.183923    -3.770009     0.709454    12.746338
H       5.469144    -4.099140     1.702151     1.677747
C       5.428141    -4.594733    -0.386945    12.816929
H       5.900922    -5.558732    -0.236601     1.683662
C       5.073158    -4.194295    -1.670346    12.900457
H       5.265620    -4.839420    -2.520706     1.695183
C       3.455695    -1.032830    -2.674299    12.097047
C       3.989885    -2.269243    -3.047792    12.051806
C       3.999440    -2.656228    -4.382002    12.910699
H       4.411788    -3.614000    -4.680342     1.696020
C       3.468385    -1.790632    -5.331846    12.792434
H       3.466796    -2.076476    -6.377655     1.689547
C       2.936535    -0.559061    -4.954661    12.749276
H       2.525765     0.101568    -5.709619     1.679568
C       2.926828    -0.170813    -3.618052    12.893367
H       2.513083     0.786327    -3.319018     1.686848
C       7.565328     2.330720    -0.969975    11.925703
C       8.395960     2.910248    -0.005620    13.188492
H       8.037549     3.062117     1.007350     1.782665
C       9.686773     3.261979    -0.345878    12.096311
C      10.180312     3.047245    -1.634757    12.072268
C       9.366250     2.470295    -2.600826    12.862209
H       9.729739     2.302603    -3.608777     1.683206
C       8.067055     2.118468    -2.260561    12.955375
H       7.416023     1.689177    -3.014174     1.713397
C      10.749474     3.894667     0.539503    11.872432
C      11.570386     3.518745    -1.687345    12.065792
C      11.917268     4.016598    -0.427608    12.127316
C      13.178813     4.530566    -0.188018    12.909100
H      13.439643     4.914557     0.792420     1.693420
C      14.102465     4.543452    -1.229432    12.738676
H      15.096515     4.942123    -1.061946     1.688672
C      13.761211     4.048164    -2.486419    12.794597
H      14.493612     4.066245    -3.285608     1.687423
C      12.492724     3.531529    -2.726292    12.909082
H      12.231665     3.147011    -3.706258     1.699727
C      10.374498     5.165271     2.543617    12.065967
C      10.316643     5.219764     1.148171    12.103114
C       9.903353     6.367971     0.496682    12.900486
H       9.861372     6.401227    -0.586792     1.693446
C       9.544192     7.475039     1.260194    12.751339
H       9.218082     8.384614     0.768771     1.687487
C       9.600366     7.425339     2.651708    12.792595
H       9.317024     8.297413     3.230198     1.688229
C      10.015793     6.270407     3.305271    12.906328
H      10.057693     6.236397     4.388533     1.701040
C      11.067564     3.077658     1.782510    12.101118
C      10.843187     3.829428     2.939221    12.062394
C      11.067572     3.274130     4.192714    12.897520
H      10.895415     3.850467     5.095253     1.702366
C      11.517860     1.960872     4.269988    12.792049
H      11.697804     1.511000     5.239844     1.687562
C      11.739963     1.215120     3.113947    12.746811
H      12.090160     0.192405     3.194639     1.678780
C      11.515177     1.770995     1.857922    12.889256
H      11.685325     1.194307     0.955056     1.689451
  
Same information as above printed with atom number.
   1 C     -1.262587    -1.831964     0.194864    11.925686
   2 C     -2.531278    -1.258564     0.062805    13.188681
   3 H     -2.637538    -0.187467    -0.075366     1.782824
   4 C     -3.647437    -2.070704     0.081681    12.078575
   5 C     -3.533466    -3.455141     0.227204    12.086427
   6 C     -2.279119    -4.037103     0.356544    12.849702
   7 H     -2.171621    -5.109458     0.477806     1.683930
   8 C     -1.156007    -3.221179     0.340290    12.957605
   9 H     -0.173705    -3.663470     0.464757     1.713168
  10 C     -5.106479    -1.660969    -0.048659    11.879093
  11 C     -4.880914    -4.039369     0.209100    12.062354
  12 C     -5.809680    -3.006352     0.049465    12.115546
  13 C     -7.166398    -3.270544    -0.001517    12.920526
  14 H     -7.880145    -2.463166    -0.125767     1.693663
  15 C     -7.593232    -4.590873     0.109645    12.734257
  16 H     -8.652383    -4.818768     0.072147     1.687672
  17 C     -6.671222    -5.623492     0.268787    12.801510
  18 H     -7.022100    -6.645797     0.353669     1.685737
  19 C     -5.307447    -5.356934     0.319726    12.906064
  20 H     -4.593457    -6.163894     0.443652     1.698692
  21 C     -5.946161     0.355814    -1.048300    12.074002
  22 C     -5.410635    -0.903555    -1.332310    12.103129
  23 C     -5.215559    -1.316618    -2.637972    12.883232
  24 H     -4.797941    -2.295193    -2.849291     1.689231
  25 C     -5.564768    -0.450569    -3.670055    12.739938
  26 H     -5.419160    -0.755096    -4.700183     1.685105
  27 C     -6.099281     0.805893    -3.391720    12.773183
  28 H     -6.364935     1.467304    -4.208643     1.694462
  29 C     -6.294479     1.219966    -2.078780    12.913535
  30 H     -6.710213     2.199090    -1.867017     1.694482
  31 C     -5.548120    -0.659780     1.007922    12.116089
  32 C     -6.031412     0.508091     0.411186    12.048201
  33 C     -6.484836     1.561770     1.194936    12.921504
  34 H     -6.861191     2.471480     0.739784     1.692699
  35 C     -6.447268     1.429079     2.578621    12.795766
  36 H     -6.797292     2.241231     3.205778     1.691925
  37 C     -5.964522     0.262819     3.169174    12.750103
  38 H     -5.943409     0.177949     4.249697     1.686247
  39 C     -5.509977    -0.793064     2.384307    12.908525
  40 H     -5.132957    -1.702971     2.838963     1.692040
  41 C     -0.047513    -0.982102     0.184355    11.899776
  42 C      1.099275    -1.391514    -0.503726    13.210790
  43 H      1.102160    -2.323749    -1.059209     1.779367
  44 C      2.219958    -0.585778    -0.493118    12.090622
  45 C      2.229567     0.633138     0.189859    12.063317
  46 C      1.096198     1.052142     0.874673    12.848163
  47 H      1.087548     1.991518     1.416575     1.683389
  48 C     -0.030672     0.241244     0.866521    12.969067
  49 H     -0.912445     0.548320     1.418095     1.710357
  50 C      3.559196    -0.834563    -1.169839    11.850029
  51 C      3.548231     1.253845     0.017204    12.073101
  52 C      4.334549     0.412873    -0.774603    12.099781
  53 C      5.633982     0.745570    -1.100419    13.193127
  54 H      6.237986     0.068948    -1.696240     1.783178
  55 C      6.173258     1.947946    -0.631714    11.899726
  56 C      5.378885     2.786205     0.161097    12.986911
  57 H      5.789804     3.728604     0.506162     1.702500
  58 C      4.072730     2.449783     0.490099    12.843782
  59 H      3.474840     3.118532     1.099564     1.684183
  60 C      4.469319    -2.954559    -1.838975    12.066226
  61 C      4.226143    -2.130942    -0.736280    12.082276
  62 C      4.578924    -2.527852     0.541024    12.890813
  63 H      4.387521    -1.881654     1.391021     1.687477
  64 C      5.183923    -3.770009     0.709454    12.746338
  65 H      5.469144    -4.099140     1.702151     1.677747
  66 C      5.428141    -4.594733    -0.386945    12.816929
  67 H      5.900922    -5.558732    -0.236601     1.683662
  68 C      5.073158    -4.194295    -1.670346    12.900457
  69 H      5.265620    -4.839420    -2.520706     1.695183
  70 C      3.455695    -1.032830    -2.674299    12.097047
  71 C      3.989885    -2.269243    -3.047792    12.051806
  72 C      3.999440    -2.656228    -4.382002    12.910699
  73 H      4.411788    -3.614000    -4.680342     1.696020
  74 C      3.468385    -1.790632    -5.331846    12.792434
  75 H      3.466796    -2.076476    -6.377655     1.689547
  76 C      2.936535    -0.559061    -4.954661    12.749276
  77 H      2.525765     0.101568    -5.709619     1.679568
  78 C      2.926828    -0.170813    -3.618052    12.893367
  79 H      2.513083     0.786327    -3.319018     1.686848
  80 C      7.565328     2.330720    -0.969975    11.925703
  81 C      8.395960     2.910248    -0.005620    13.188492
  82 H      8.037549     3.062117     1.007350     1.782665
  83 C      9.686773     3.261979    -0.345878    12.096311
  84 C     10.180312     3.047245    -1.634757    12.072268
  85 C      9.366250     2.470295    -2.600826    12.862209
  86 H      9.729739     2.302603    -3.608777     1.683206
  87 C      8.067055     2.118468    -2.260561    12.955375
  88 H      7.416023     1.689177    -3.014174     1.713397
  89 C     10.749474     3.894667     0.539503    11.872432
  90 C     11.570386     3.518745    -1.687345    12.065792
  91 C     11.917268     4.016598    -0.427608    12.127316
  92 C     13.178813     4.530566    -0.188018    12.909100
  93 H     13.439643     4.914557     0.792420     1.693420
  94 C     14.102465     4.543452    -1.229432    12.738676
  95 H     15.096515     4.942123    -1.061946     1.688672
  96 C     13.761211     4.048164    -2.486419    12.794597
  97 H     14.493612     4.066245    -3.285608     1.687423
  98 C     12.492724     3.531529    -2.726292    12.909082
  99 H     12.231665     3.147011    -3.706258     1.699727
 100 C     10.374498     5.165271     2.543617    12.065967
 101 C     10.316643     5.219764     1.148171    12.103114
 102 C      9.903353     6.367971     0.496682    12.900486
 103 H      9.861372     6.401227    -0.586792     1.693446
 104 C      9.544192     7.475039     1.260194    12.751339
 105 H      9.218082     8.384614     0.768771     1.687487
 106 C      9.600366     7.425339     2.651708    12.792595
 107 H      9.317024     8.297413     3.230198     1.688229
 108 C     10.015793     6.270407     3.305271    12.906328
 109 H     10.057693     6.236397     4.388533     1.701040
 110 C     11.067564     3.077658     1.782510    12.101118
 111 C     10.843187     3.829428     2.939221    12.062394
 112 C     11.067572     3.274130     4.192714    12.897520
 113 H     10.895415     3.850467     5.095253     1.702366
 114 C     11.517860     1.960872     4.269988    12.792049
 115 H     11.697804     1.511000     5.239844     1.687562
 116 C     11.739963     1.215120     3.113947    12.746811
 117 H     12.090160     0.192405     3.194639     1.678780
 118 C     11.515177     1.770995     1.857922    12.889256
 119 H     11.685325     1.194307     0.955056     1.689451
