   69
Nonperiodic system
N       1.169280     2.253017     0.010253    76.853032
C       1.779788     1.068751     0.042470    64.250481
N       1.144672    -0.102449     0.037164    76.728878
C      -0.186019    -0.039576    -0.001563    64.409506
N      -0.882132     1.095890    -0.037593    76.674078
C      -0.161942     2.217276    -0.030654    64.282956
C       3.261786     1.053594     0.089588    79.480880
C       3.970448     2.253079     0.072833    90.084553
C       5.362871     2.265052     0.113489    79.849290
C       6.039073     1.043918     0.170563    85.581487
C       5.338593    -0.154919     0.185489    81.838002
C       3.952740    -0.156620     0.145477    84.812243
H       3.417257     3.181695     0.008749    11.282152
H       7.122331     1.036078     0.225409     9.406813
H       5.878279    -1.093401     0.238442     8.285102
H       3.394158    -1.083389     0.159622     9.554134
C       6.107048     3.549343     0.098988    80.346366
C       5.668356     4.635198     0.860100    86.297320
C       6.362787     5.837080     0.847212    83.340171
C       7.508617     5.974238     0.073029    84.024409
C       7.954504     4.900959    -0.688501    83.123888
C       7.259428     3.699235    -0.675515    87.088670
H       4.786869     4.528265     1.483025     9.214025
H       6.011917     6.666925     1.450305     8.473931
H       8.051080     6.912672     0.063051     8.626352
H       8.842785     5.001579    -1.301937     8.494295
H       7.600443     2.873404    -1.290615     9.508867
C      -0.940843    -1.315863    -0.007416    79.449671
C      -0.256422    -2.529082     0.022917    90.005150
C      -0.943125    -3.741164     0.022482    79.828916
C      -2.339617    -3.716691    -0.007213    85.640020
C      -3.027524    -2.510812    -0.034479    82.006592
C      -2.335215    -1.309603    -0.035313    84.858359
H       0.825425    -2.513598     0.066052    11.215259
H      -2.889200    -4.651567    -0.029577     9.403440
H      -4.111033    -2.509409    -0.063247     8.277736
H      -2.858384    -0.362538    -0.057119     9.550088
C      -0.203135    -5.027612     0.052249    80.167535
C       0.942047    -5.209131    -0.726477    86.621646
C       1.635611    -6.411309    -0.698385    83.176094
C       1.195883    -7.453416     0.108929    83.909073
C       0.057967    -7.284369     0.888210    83.223467
C      -0.635107    -6.081765     0.860010    87.296172
H       1.278724    -4.407171    -1.374554     9.189992
H       2.518315    -6.536973    -1.315259     8.483963
H       1.737418    -8.392181     0.130916     8.643756
H      -0.287474    -8.089078     1.527407     8.467641
H      -1.508900    -5.949125     1.488917     9.465222
C      -0.889105     3.508859    -0.072370    79.346396
C      -2.282065     3.522394    -0.097230    90.049001
C      -2.987888     4.722894    -0.133236    79.849389
C      -2.268020     5.920132    -0.142683    85.672588
C      -0.879721     5.913299    -0.116026    81.866169
C      -0.186042     4.713366    -0.081151    84.872263
H      -2.810791     2.577873    -0.069144    11.230402
H      -2.801801     6.863046    -0.192906     9.407884
H      -0.336054     6.850847    -0.132095     8.294802
H       0.895814     4.693124    -0.062662     9.557384
C      -4.471956     4.724637    -0.163300    80.252619
C      -5.168900     3.819869    -0.967326    86.772997
C      -6.556757     3.819635    -0.996061    82.967191
C      -7.272233     4.724479    -0.221162    83.699880
C      -6.589736     5.629129     0.582888    83.305169
C      -5.201699     5.628835     0.611409    87.070799
H      -4.616259     3.125048    -1.590479     9.181990
H      -7.080967     3.115192    -1.632026     8.519392
H      -8.355980     4.724419    -0.243602     8.660040
H      -7.139930     6.333071     1.197078     8.481438
H      -4.676340     6.322423     1.259157     9.494280
  
Same information as above printed with atom number.
   1 N      1.169280     2.253017     0.010253    76.853032
   2 C      1.779788     1.068751     0.042470    64.250481
   3 N      1.144672    -0.102449     0.037164    76.728878
   4 C     -0.186019    -0.039576    -0.001563    64.409506
   5 N     -0.882132     1.095890    -0.037593    76.674078
   6 C     -0.161942     2.217276    -0.030654    64.282956
   7 C      3.261786     1.053594     0.089588    79.480880
   8 C      3.970448     2.253079     0.072833    90.084553
   9 C      5.362871     2.265052     0.113489    79.849290
  10 C      6.039073     1.043918     0.170563    85.581487
  11 C      5.338593    -0.154919     0.185489    81.838002
  12 C      3.952740    -0.156620     0.145477    84.812243
  13 H      3.417257     3.181695     0.008749    11.282152
  14 H      7.122331     1.036078     0.225409     9.406813
  15 H      5.878279    -1.093401     0.238442     8.285102
  16 H      3.394158    -1.083389     0.159622     9.554134
  17 C      6.107048     3.549343     0.098988    80.346366
  18 C      5.668356     4.635198     0.860100    86.297320
  19 C      6.362787     5.837080     0.847212    83.340171
  20 C      7.508617     5.974238     0.073029    84.024409
  21 C      7.954504     4.900959    -0.688501    83.123888
  22 C      7.259428     3.699235    -0.675515    87.088670
  23 H      4.786869     4.528265     1.483025     9.214025
  24 H      6.011917     6.666925     1.450305     8.473931
  25 H      8.051080     6.912672     0.063051     8.626352
  26 H      8.842785     5.001579    -1.301937     8.494295
  27 H      7.600443     2.873404    -1.290615     9.508867
  28 C     -0.940843    -1.315863    -0.007416    79.449671
  29 C     -0.256422    -2.529082     0.022917    90.005150
  30 C     -0.943125    -3.741164     0.022482    79.828916
  31 C     -2.339617    -3.716691    -0.007213    85.640020
  32 C     -3.027524    -2.510812    -0.034479    82.006592
  33 C     -2.335215    -1.309603    -0.035313    84.858359
  34 H      0.825425    -2.513598     0.066052    11.215259
  35 H     -2.889200    -4.651567    -0.029577     9.403440
  36 H     -4.111033    -2.509409    -0.063247     8.277736
  37 H     -2.858384    -0.362538    -0.057119     9.550088
  38 C     -0.203135    -5.027612     0.052249    80.167535
  39 C      0.942047    -5.209131    -0.726477    86.621646
  40 C      1.635611    -6.411309    -0.698385    83.176094
  41 C      1.195883    -7.453416     0.108929    83.909073
  42 C      0.057967    -7.284369     0.888210    83.223467
  43 C     -0.635107    -6.081765     0.860010    87.296172
  44 H      1.278724    -4.407171    -1.374554     9.189992
  45 H      2.518315    -6.536973    -1.315259     8.483963
  46 H      1.737418    -8.392181     0.130916     8.643756
  47 H     -0.287474    -8.089078     1.527407     8.467641
  48 H     -1.508900    -5.949125     1.488917     9.465222
  49 C     -0.889105     3.508859    -0.072370    79.346396
  50 C     -2.282065     3.522394    -0.097230    90.049001
  51 C     -2.987888     4.722894    -0.133236    79.849389
  52 C     -2.268020     5.920132    -0.142683    85.672588
  53 C     -0.879721     5.913299    -0.116026    81.866169
  54 C     -0.186042     4.713366    -0.081151    84.872263
  55 H     -2.810791     2.577873    -0.069144    11.230402
  56 H     -2.801801     6.863046    -0.192906     9.407884
  57 H     -0.336054     6.850847    -0.132095     8.294802
  58 H      0.895814     4.693124    -0.062662     9.557384
  59 C     -4.471956     4.724637    -0.163300    80.252619
  60 C     -5.168900     3.819869    -0.967326    86.772997
  61 C     -6.556757     3.819635    -0.996061    82.967191
  62 C     -7.272233     4.724479    -0.221162    83.699880
  63 C     -6.589736     5.629129     0.582888    83.305169
  64 C     -5.201699     5.628835     0.611409    87.070799
  65 H     -4.616259     3.125048    -1.590479     9.181990
  66 H     -7.080967     3.115192    -1.632026     8.519392
  67 H     -8.355980     4.724419    -0.243602     8.660040
  68 H     -7.139930     6.333071     1.197078     8.481438
  69 H     -4.676340     6.322423     1.259157     9.494280
