   81
Nonperiodic system
C       0.055620     1.394051    -1.384391    27.866383
C       1.237012     0.657157    -1.387786    30.758749
C       1.194115    -0.731782    -1.384391    27.870652
C      -0.034664    -1.386392    -1.397971    30.805214
C      -1.216171    -0.654850    -1.394233    27.871219
C      -1.168717     0.736790    -1.397684    30.799045
H       2.200684     1.151444    -1.378656     3.932863
H      -0.088701    -2.468105    -1.397327     3.921606
H      -2.078611     1.324312    -1.396252     3.935340
C       0.658409     4.875102    -0.588272    27.024223
C      -0.285933     4.941604    -1.624492    26.633820
N      -0.626753     3.669569    -2.047372    29.503569
C       0.079661     2.864072    -1.307920    24.862807
N       0.889622     3.522813    -0.397342    26.143058
C      -0.740360     6.183630    -2.069330    30.127981
C      -0.242114     7.316571    -1.450962    30.550235
C       0.691137     7.228733    -0.404752    30.175516
C       1.158539     6.006479     0.048196    31.365436
H      -1.463790     6.241538    -2.873317     3.329183
H      -0.577594     8.294591    -1.776024     3.451505
H       1.054218     8.139127     0.058109     3.410881
H       1.875482     5.934645     0.857477     3.658979
C       1.588624     2.945174     0.698215    26.715007
C       0.888035     2.202214     1.643010    31.441911
C       1.574214     1.621944     2.699892    29.723179
C       2.949786     1.788318     2.820384    29.292904
C       3.640238     2.542626     1.879333    29.205634
C       2.962074     3.121300     0.813729    30.235790
H      -0.183418     2.075741     1.538733     4.362139
H       1.030422     1.041955     3.437490     3.732274
H       3.482423     1.331158     3.646005     3.340319
H       4.712428     2.671950     1.966634     3.307156
H       3.490137     3.694106     0.060240     3.340196
C       3.904773    -2.998113    -0.589781    27.064322
C       4.439379    -2.205712    -1.617487    26.630715
N       3.509673    -1.272341    -2.038795    29.516640
C       2.455089    -1.487598    -1.306526    24.856394
N       2.616834    -2.524378    -0.402115    26.157457
C       5.744739    -2.428614    -2.057176    30.139129
C       6.474516    -3.430281    -1.442295    30.536965
C       5.927064    -4.202636    -0.404477    30.235104
C       4.632304    -4.000793     0.043240    31.289640
H       6.160041    -1.824772    -2.854669     3.311935
H       7.491127    -3.625519    -1.763443     3.454737
H       6.532263    -4.975004     0.056025     3.406618
H       4.208056    -4.591897     0.846176     3.667243
C       1.758756    -2.853085     0.683190    26.689526
C       1.448016    -1.882362     1.630143    31.502078
C       0.592770    -2.198548     2.675622    29.695252
C       0.057355    -3.477675     2.783208    29.405082
C       0.383379    -4.445300     1.840552    29.096158
C       1.232844    -4.135141     0.785875    30.367047
H       1.867828    -0.887450     1.536346     4.366619
H       0.348355    -1.443229     3.414484     3.728058
H      -0.612228    -3.719865     3.600118     3.333305
H      -0.034095    -5.442147     1.917767     3.316354
H       1.478377    -4.872911     0.030810     3.333414
C      -4.539224    -1.877484    -0.632905    27.124569
C      -4.109097    -2.732698    -1.659333    26.663321
N      -2.832917    -2.390306    -2.067800    29.527810
C      -2.500802    -1.370832    -1.329386    24.922732
N      -3.488538    -0.997440    -0.432871    25.838664
C      -4.948898    -3.751907    -2.109889    30.154489
C      -6.186652    -3.887122    -1.506808    30.555843
C      -6.592948    -3.030816    -0.469999    30.201900
C      -5.776841    -2.010351    -0.011594    31.328314
H      -4.625143    -4.410456    -2.906502     3.311448
H      -6.859610    -4.670115    -1.836651     3.450069
H      -7.568376    -3.171980    -0.018908     3.407824
H      -6.085315    -1.350490     0.790603     3.669948
C      -3.358176    -0.091963     0.655786    26.805845
C      -2.374104    -0.308598     1.615039    31.406080
C      -2.236495     0.587633     2.665066    29.720171
C      -3.080253     1.688809     2.764403    29.339060
C      -4.068839     1.890948     1.808863    29.207757
C      -4.209048     1.002543     0.750067    30.212447
H      -1.719260    -1.167931     1.527221     4.365923
H      -1.469814     0.421389     3.413918     3.730231
H      -2.967556     2.387752     3.584839     3.333969
H      -4.726113     2.749398     1.879518     3.307048
H      -4.961252     1.158803    -0.014443     3.351219
  
Same information as above printed with atom number.
   1 C      0.055620     1.394051    -1.384391    27.866383
   2 C      1.237012     0.657157    -1.387786    30.758749
   3 C      1.194115    -0.731782    -1.384391    27.870652
   4 C     -0.034664    -1.386392    -1.397971    30.805214
   5 C     -1.216171    -0.654850    -1.394233    27.871219
   6 C     -1.168717     0.736790    -1.397684    30.799045
   7 H      2.200684     1.151444    -1.378656     3.932863
   8 H     -0.088701    -2.468105    -1.397327     3.921606
   9 H     -2.078611     1.324312    -1.396252     3.935340
  10 C      0.658409     4.875102    -0.588272    27.024223
  11 C     -0.285933     4.941604    -1.624492    26.633820
  12 N     -0.626753     3.669569    -2.047372    29.503569
  13 C      0.079661     2.864072    -1.307920    24.862807
  14 N      0.889622     3.522813    -0.397342    26.143058
  15 C     -0.740360     6.183630    -2.069330    30.127981
  16 C     -0.242114     7.316571    -1.450962    30.550235
  17 C      0.691137     7.228733    -0.404752    30.175516
  18 C      1.158539     6.006479     0.048196    31.365436
  19 H     -1.463790     6.241538    -2.873317     3.329183
  20 H     -0.577594     8.294591    -1.776024     3.451505
  21 H      1.054218     8.139127     0.058109     3.410881
  22 H      1.875482     5.934645     0.857477     3.658979
  23 C      1.588624     2.945174     0.698215    26.715007
  24 C      0.888035     2.202214     1.643010    31.441911
  25 C      1.574214     1.621944     2.699892    29.723179
  26 C      2.949786     1.788318     2.820384    29.292904
  27 C      3.640238     2.542626     1.879333    29.205634
  28 C      2.962074     3.121300     0.813729    30.235790
  29 H     -0.183418     2.075741     1.538733     4.362139
  30 H      1.030422     1.041955     3.437490     3.732274
  31 H      3.482423     1.331158     3.646005     3.340319
  32 H      4.712428     2.671950     1.966634     3.307156
  33 H      3.490137     3.694106     0.060240     3.340196
  34 C      3.904773    -2.998113    -0.589781    27.064322
  35 C      4.439379    -2.205712    -1.617487    26.630715
  36 N      3.509673    -1.272341    -2.038795    29.516640
  37 C      2.455089    -1.487598    -1.306526    24.856394
  38 N      2.616834    -2.524378    -0.402115    26.157457
  39 C      5.744739    -2.428614    -2.057176    30.139129
  40 C      6.474516    -3.430281    -1.442295    30.536965
  41 C      5.927064    -4.202636    -0.404477    30.235104
  42 C      4.632304    -4.000793     0.043240    31.289640
  43 H      6.160041    -1.824772    -2.854669     3.311935
  44 H      7.491127    -3.625519    -1.763443     3.454737
  45 H      6.532263    -4.975004     0.056025     3.406618
  46 H      4.208056    -4.591897     0.846176     3.667243
  47 C      1.758756    -2.853085     0.683190    26.689526
  48 C      1.448016    -1.882362     1.630143    31.502078
  49 C      0.592770    -2.198548     2.675622    29.695252
  50 C      0.057355    -3.477675     2.783208    29.405082
  51 C      0.383379    -4.445300     1.840552    29.096158
  52 C      1.232844    -4.135141     0.785875    30.367047
  53 H      1.867828    -0.887450     1.536346     4.366619
  54 H      0.348355    -1.443229     3.414484     3.728058
  55 H     -0.612228    -3.719865     3.600118     3.333305
  56 H     -0.034095    -5.442147     1.917767     3.316354
  57 H      1.478377    -4.872911     0.030810     3.333414
  58 C     -4.539224    -1.877484    -0.632905    27.124569
  59 C     -4.109097    -2.732698    -1.659333    26.663321
  60 N     -2.832917    -2.390306    -2.067800    29.527810
  61 C     -2.500802    -1.370832    -1.329386    24.922732
  62 N     -3.488538    -0.997440    -0.432871    25.838664
  63 C     -4.948898    -3.751907    -2.109889    30.154489
  64 C     -6.186652    -3.887122    -1.506808    30.555843
  65 C     -6.592948    -3.030816    -0.469999    30.201900
  66 C     -5.776841    -2.010351    -0.011594    31.328314
  67 H     -4.625143    -4.410456    -2.906502     3.311448
  68 H     -6.859610    -4.670115    -1.836651     3.450069
  69 H     -7.568376    -3.171980    -0.018908     3.407824
  70 H     -6.085315    -1.350490     0.790603     3.669948
  71 C     -3.358176    -0.091963     0.655786    26.805845
  72 C     -2.374104    -0.308598     1.615039    31.406080
  73 C     -2.236495     0.587633     2.665066    29.720171
  74 C     -3.080253     1.688809     2.764403    29.339060
  75 C     -4.068839     1.890948     1.808863    29.207757
  76 C     -4.209048     1.002543     0.750067    30.212447
  77 H     -1.719260    -1.167931     1.527221     4.365923
  78 H     -1.469814     0.421389     3.413918     3.730231
  79 H     -2.967556     2.387752     3.584839     3.333969
  80 H     -4.726113     2.749398     1.879518     3.307048
  81 H     -4.961252     1.158803    -0.014443     3.351219
