   62
Nonperiodic system
N       3.302820    -0.164307     0.705248    12.165200
C       3.921266     1.028642     0.348459    11.568648
C       5.219491     0.753054    -0.117800    12.289215
C       5.395480    -0.680834    -0.034341    12.284718
C       4.192809    -1.207474     0.475039    11.559643
C       3.445166     2.334253     0.428985    13.211388
C       4.286639     3.353258     0.017881    12.966462
C       5.586758     3.108195    -0.461448    12.081553
C       6.047066     1.796531    -0.521066    13.114727
C       6.444054    -1.540466    -0.355089    12.831541
C       6.277179    -2.902712    -0.169086    12.974958
C       5.070373    -3.410998     0.326612    12.759851
C       4.012867    -2.577230     0.653169    13.279579
H       2.449018     2.549408     0.795873     1.733551
H       3.926012     4.375611     0.047684     1.732978
H       7.057760     1.591466    -0.857842     1.728395
H       7.375319    -1.146518    -0.746939     1.665698
H       7.083893    -3.584088    -0.412292     1.700354
H       4.957383    -4.481436     0.456163     1.676634
H       3.078581    -2.977578     1.027404     1.743271
C       1.779650    -0.910238     2.447560    13.020755
C       1.989445    -0.293926     1.216655    11.349673
C       0.908187     0.195595     0.488492    13.026354
C      -0.377689     0.076613     0.998173    12.639260
C      -0.591355    -0.547798     2.221351    12.759482
C       0.488951    -1.044789     2.940873    12.627141
H       2.631125    -1.273843     3.010852     1.658955
H       1.083839     0.660277    -0.474708     1.654945
H      -1.216677     0.461663     0.430147     1.667779
H      -1.597020    -0.646779     2.612858     1.678396
H       0.329031    -1.527991     3.897829     1.666939
C      10.084689     7.896130    -5.394370    12.648494
C      11.416605     8.216938    -5.160280    12.765237
C      11.889376     8.293016    -3.855485    12.652018
C      11.039512     8.039635    -2.787378    13.011786
C       9.702970     7.729307    -3.024800    11.342848
C       9.223822     7.662578    -4.330555    12.987072
H       9.709045     7.840139    -6.409544     1.661571
H      12.084342     8.407034    -5.992390     1.677062
H      12.928354     8.537490    -3.666845     1.660510
H      11.403120     8.073953    -1.767024     1.660818
H       8.178268     7.433843    -4.501030     1.672292
N       8.830720     7.480702    -1.938311    12.171433
C       8.087010     6.322431    -1.742500    11.560771
C       7.342286     6.448232    -0.555788    12.304075
C       7.655727     7.748868    -0.004224    12.281115
C       8.573467     8.352028    -0.885768    11.557607
C       8.036831     5.159928    -2.506556    13.214435
C       7.215183     4.136145    -2.068266    12.984476
C       6.451948     4.235791    -0.890231    12.059901
C       6.527011     5.401934    -0.135056    13.103813
C       7.233008     8.438969     1.129981    12.836833
C       7.724477     9.712510     1.363926    12.979193
C       8.626991    10.302594     0.470751    12.770863
C       9.062652     9.637255    -0.663986    13.258036
H       8.616040     5.057793    -3.416117     1.729869
H       7.141381     3.231870    -2.662380     1.723388
H       5.970219     5.483940     0.792419     1.729252
H       6.527483     7.984494     1.816769     1.665172
H       7.406644    10.261394     2.242512     1.698493
H       8.992586    11.304007     0.667977     1.676376
H       9.753837    10.102507    -1.356150     1.746343
  
Same information as above printed with atom number.
   1 N      3.302820    -0.164307     0.705248    12.165200
   2 C      3.921266     1.028642     0.348459    11.568648
   3 C      5.219491     0.753054    -0.117800    12.289215
   4 C      5.395480    -0.680834    -0.034341    12.284718
   5 C      4.192809    -1.207474     0.475039    11.559643
   6 C      3.445166     2.334253     0.428985    13.211388
   7 C      4.286639     3.353258     0.017881    12.966462
   8 C      5.586758     3.108195    -0.461448    12.081553
   9 C      6.047066     1.796531    -0.521066    13.114727
  10 C      6.444054    -1.540466    -0.355089    12.831541
  11 C      6.277179    -2.902712    -0.169086    12.974958
  12 C      5.070373    -3.410998     0.326612    12.759851
  13 C      4.012867    -2.577230     0.653169    13.279579
  14 H      2.449018     2.549408     0.795873     1.733551
  15 H      3.926012     4.375611     0.047684     1.732978
  16 H      7.057760     1.591466    -0.857842     1.728395
  17 H      7.375319    -1.146518    -0.746939     1.665698
  18 H      7.083893    -3.584088    -0.412292     1.700354
  19 H      4.957383    -4.481436     0.456163     1.676634
  20 H      3.078581    -2.977578     1.027404     1.743271
  21 C      1.779650    -0.910238     2.447560    13.020755
  22 C      1.989445    -0.293926     1.216655    11.349673
  23 C      0.908187     0.195595     0.488492    13.026354
  24 C     -0.377689     0.076613     0.998173    12.639260
  25 C     -0.591355    -0.547798     2.221351    12.759482
  26 C      0.488951    -1.044789     2.940873    12.627141
  27 H      2.631125    -1.273843     3.010852     1.658955
  28 H      1.083839     0.660277    -0.474708     1.654945
  29 H     -1.216677     0.461663     0.430147     1.667779
  30 H     -1.597020    -0.646779     2.612858     1.678396
  31 H      0.329031    -1.527991     3.897829     1.666939
  32 C     10.084689     7.896130    -5.394370    12.648494
  33 C     11.416605     8.216938    -5.160280    12.765237
  34 C     11.889376     8.293016    -3.855485    12.652018
  35 C     11.039512     8.039635    -2.787378    13.011786
  36 C      9.702970     7.729307    -3.024800    11.342848
  37 C      9.223822     7.662578    -4.330555    12.987072
  38 H      9.709045     7.840139    -6.409544     1.661571
  39 H     12.084342     8.407034    -5.992390     1.677062
  40 H     12.928354     8.537490    -3.666845     1.660510
  41 H     11.403120     8.073953    -1.767024     1.660818
  42 H      8.178268     7.433843    -4.501030     1.672292
  43 N      8.830720     7.480702    -1.938311    12.171433
  44 C      8.087010     6.322431    -1.742500    11.560771
  45 C      7.342286     6.448232    -0.555788    12.304075
  46 C      7.655727     7.748868    -0.004224    12.281115
  47 C      8.573467     8.352028    -0.885768    11.557607
  48 C      8.036831     5.159928    -2.506556    13.214435
  49 C      7.215183     4.136145    -2.068266    12.984476
  50 C      6.451948     4.235791    -0.890231    12.059901
  51 C      6.527011     5.401934    -0.135056    13.103813
  52 C      7.233008     8.438969     1.129981    12.836833
  53 C      7.724477     9.712510     1.363926    12.979193
  54 C      8.626991    10.302594     0.470751    12.770863
  55 C      9.062652     9.637255    -0.663986    13.258036
  56 H      8.616040     5.057793    -3.416117     1.729869
  57 H      7.141381     3.231870    -2.662380     1.723388
  58 H      5.970219     5.483940     0.792419     1.729252
  59 H      6.527483     7.984494     1.816769     1.665172
  60 H      7.406644    10.261394     2.242512     1.698493
  61 H      8.992586    11.304007     0.667977     1.676376
  62 H      9.753837    10.102507    -1.356150     1.746343
