   68
Nonperiodic system
N      2.119823     0.345536    -0.000591    -0.461706
C      0.905718     0.894368     0.043265     0.441934
N     -0.230790     0.200354     0.026501    -0.452193
C     -0.101912    -1.124612    -0.038625     0.440845
N      1.068125    -1.762033    -0.086071    -0.458825
C      2.150940    -0.985376    -0.064787     0.441753
C      3.478050    -1.645524    -0.116136    -0.018764
C      3.569287    -3.036165    -0.187073    -0.104796
H      2.657817    -3.619699    -0.203765     0.108164
C      4.811048    -3.652004    -0.235231    -0.098993
H      4.875128    -4.732659    -0.290362     0.101756
C      5.970867    -2.885480    -0.212910    -0.080206
H      6.941145    -3.368033    -0.250636     0.099341
C      5.885272    -1.499526    -0.142269    -0.100328
H      6.787974    -0.899716    -0.124783     0.101967
C      4.644988    -0.880683    -0.094082    -0.098776
H      4.562664     0.197138    -0.039041     0.104908
C      0.811398     2.372240     0.115312    -0.025184
C     -0.437252     2.994111     0.161230    -0.099000
H     -1.329344     2.381340     0.143373     0.111994
C     -0.524620     4.376586     0.228571    -0.100028
H     -1.497418     4.853327     0.263974     0.102503
C      0.631612     5.148514     0.250651    -0.078358
H      0.561686     6.229312     0.303331     0.098277
C      1.877785     4.533429     0.205110    -0.100817
H      2.780572     5.133140     0.222189     0.101077
C      1.968966     3.151152     0.137688    -0.101469
H      2.932040     2.658402     0.101665     0.108216
C     -1.340904    -1.934829    -0.059534    -0.022323
C     -2.584808    -1.299378    -0.015837    -0.136747
H     -2.634509    -0.218635     0.033298     0.118555
C     -3.726816    -2.071127    -0.036911     0.018916
C     -3.656407    -3.466042    -0.100418     0.031637
C     -2.421464    -4.102890    -0.143772    -0.137230
H     -2.353478    -5.183914    -0.193095     0.107480
C     -1.269546    -3.330632    -0.123090    -0.097608
H     -0.293127    -3.796473    -0.155854     0.106910
C     -5.173540    -1.604826     0.000589     0.019406
C     -5.023697    -4.001060    -0.108460     0.010636
C     -5.919321    -2.928925    -0.050046     0.027935
C     -7.285901    -3.144094    -0.043893    -0.129969
H     -7.974643    -2.307395     0.001561     0.112259
C     -7.754239    -4.453491    -0.097190    -0.090367
H     -8.821545    -4.643181    -0.093374     0.100803
C     -6.864758    -5.525171    -0.155496    -0.098380
H     -7.249118    -6.537990    -0.196441     0.100355
C     -5.491812    -5.308440    -0.161640    -0.131834
H     -4.802709    -6.144665    -0.207054     0.105980
C     -5.992034     0.564107    -0.629162     0.015580
C     -5.530846    -0.655173    -1.133100     0.022893
C     -5.439577    -0.874169    -2.495796    -0.128181
H     -5.079250    -1.823048    -2.878604     0.111270
C     -5.817664     0.147837    -3.361759    -0.092490
H     -5.752753    -0.003363    -4.433180     0.099193
C     -6.277899     1.365200    -2.864008    -0.097509
H     -6.567234     2.150124    -3.553593     0.099305
C     -6.369109     1.583872    -1.493835    -0.135652
H     -6.727761     2.533231    -1.111178     0.105325
C     -5.504334    -0.760187     1.221984     0.022301
C     -5.975491     0.498647     0.839114     0.018948
C     -6.332167     1.436999     1.799337    -0.135261
H     -6.698314     2.416289     1.510739     0.102802
C     -6.210713     1.097295     3.142222    -0.094606
H     -6.483827     1.817377     3.905256     0.097905
C     -5.740765    -0.159151     3.519117    -0.092663
H     -5.652217    -0.405176     4.571091     0.098888
C     -5.383018    -1.099569     2.557387    -0.129685
H     -5.015264    -2.078424     2.846128     0.111929
 
 Chargemol version 3.5 September 26, 2017.
See ddec.sourceforge.net for latest version.
 
Computational parameters:
Number of radial integration shells =    100
Cutoff radius (pm) =    500
Error in the integrated total number of electrons before renormalization (e) =    4.1172E-09
Charge convergence tolerance =    1.0000E-05
Minimum radius for electron cloud penetration fitting (pm) =    200
Minimum decay exponent for electron density of buried atom tails =   1.7500
Maximum decay exponent for electron density of buried atom tails =  2.5000
Number of iterations to convergence =      7
 
The following XYZ coordinates are in angstroms. The atomic dipoles and quadrupoles are in atomic units.
atom number, atomic symbol, x, y, z, net_charge, dipole_x, dipole_y, dipole_z, dipole_mag, Qxy, Qxz, Qyz,Q(x^2-y^2), Q(3z^2 - R^2), three eigenvalues of traceless quadrupole moment tensor
    1 N      2.119823     0.345536    -0.000591    -0.461706    -0.128015    -0.084532    -0.002364     0.153424    -0.116588    -0.002558    -0.002572    -0.097664     0.276313    -0.170902     0.079690     0.091212
    2 C      0.905718     0.894368     0.043265     0.441934     0.003605    -0.035401    -0.001267     0.035607    -0.001663     0.002141    -0.004920    -0.011865     0.249533    -0.046665    -0.034863     0.081528
    3 N     -0.230790     0.200354     0.026501    -0.452193     0.135160    -0.068924    -0.005382     0.151815     0.100761     0.008259    -0.003831    -0.147808     0.273998    -0.169334     0.078671     0.090663
    4 C     -0.101912    -1.124612    -0.038625     0.440845     0.028985     0.018675     0.000728     0.034488     0.004433     0.002083    -0.006051     0.005728     0.246323    -0.045544    -0.034996     0.080540
    5 N      1.068125    -1.762033    -0.086071    -0.458825    -0.011011     0.154655     0.007454     0.155226     0.016111     0.001038    -0.012444     0.250937     0.268451    -0.170239     0.081135     0.089104
    6 C      2.150940    -0.985376    -0.064787     0.441753    -0.031760     0.016590     0.001221     0.035853    -0.005406     0.001286    -0.006055     0.006328     0.246676    -0.046441    -0.034212     0.080652
    7 C      3.478050    -1.645524    -0.116136    -0.018764     0.028856    -0.014252    -0.001035     0.032200    -0.019323    -0.001760     0.002982     0.026459    -0.118349    -0.040819    -0.002636     0.043455
    8 C      3.569287    -3.036165    -0.187073    -0.104796     0.025361     0.013240     0.000391     0.028612     0.041271     0.000999     0.001155     0.007301    -0.063388    -0.030068    -0.022786     0.052854
    9 H      2.657817    -3.619699    -0.203765     0.108164    -0.041332    -0.034338    -0.001373     0.053752     0.020354     0.000807     0.001206    -0.021347    -0.042184    -0.015994    -0.014192     0.030186
   10 C      4.811048    -3.652004    -0.235231    -0.098993    -0.006202     0.031343     0.001877     0.032005    -0.001509    -0.001379     0.006560    -0.074190    -0.179338    -0.061601    -0.006400     0.068002
   11 H      4.875128    -4.732659    -0.290362     0.101756     0.001458    -0.051058    -0.002553     0.051143    -0.000004    -0.000622     0.002361    -0.008016    -0.084357    -0.028334     0.009973     0.018361
   12 C      5.970867    -2.885480    -0.212910    -0.080206    -0.028604     0.014666     0.001443     0.032177    -0.033485    -0.002583     0.002609     0.051288    -0.146625    -0.050603    -0.016816     0.067419
   13 H      6.941145    -3.368033    -0.250636     0.099341     0.046564    -0.023240    -0.002136     0.052086    -0.004348    -0.000712     0.001870     0.006740    -0.082106    -0.027551     0.008146     0.019405
   14 C      5.885272    -1.499526    -0.142269    -0.100328    -0.028358    -0.013638     0.000241     0.031468     0.036255    -0.000643     0.003548     0.021841    -0.183783    -0.062926    -0.006234     0.069160
   15 H      6.787974    -0.899716    -0.124783     0.101967     0.041848     0.029081     0.001112     0.050973     0.004266    -0.000549     0.001870     0.002202    -0.084448    -0.028331     0.009667     0.018664
   16 C      4.644988    -0.880683    -0.094082    -0.098776     0.004815    -0.024460    -0.001948     0.025005     0.008569    -0.000066     0.004790    -0.085083    -0.065323    -0.031736    -0.023671     0.055408
   17 H      4.562664     0.197138    -0.039041     0.104908     0.002172     0.055831     0.002463     0.055928     0.015655     0.000620     0.001917    -0.033496    -0.043121    -0.015792    -0.014537     0.030329
   18 C      0.811398     2.372240     0.115312    -0.025184    -0.000786     0.031350     0.000923     0.031373    -0.003434    -0.001148     0.005068    -0.049637    -0.116177    -0.040228    -0.004707     0.044935
   19 C     -0.437252     2.994111     0.161230    -0.099000     0.024028     0.016538     0.000417     0.029173     0.029168     0.000635     0.000013     0.057576    -0.059367    -0.030275    -0.021443     0.051718
   20 H     -1.329344     2.381340     0.143373     0.111994    -0.048879    -0.025865    -0.000570     0.055304     0.007211    -0.000173    -0.000315     0.042476    -0.042521    -0.015451    -0.014194     0.029645
   21 C     -0.524620     4.376586     0.228571    -0.100028     0.027043    -0.018781    -0.001284     0.032950    -0.027662    -0.003259     0.004042     0.052054    -0.178003    -0.061069    -0.007393     0.068462
   22 H     -1.497418     4.853327     0.263974     0.102503    -0.046513     0.020947     0.001450     0.051033    -0.002769    -0.000688     0.001971     0.006433    -0.084265    -0.028279     0.009781     0.018498
   23 C      0.631612     5.148514     0.250651    -0.078358     0.001780    -0.032259    -0.001118     0.032327    -0.005829    -0.000711     0.005379    -0.084389    -0.150306    -0.051933    -0.016661     0.068594
   24 H      0.561686     6.229312     0.303331     0.098277    -0.003202     0.052148     0.002394     0.052301    -0.000694    -0.000406     0.002269    -0.010994    -0.081936    -0.027511     0.008028     0.019483
   25 C      1.877785     4.533429     0.205110    -0.100817    -0.022961    -0.020048    -0.001165     0.030504     0.034237     0.000427     0.003514     0.034654    -0.180774    -0.061891    -0.007290     0.069181
   26 H      2.780572     5.133140     0.222189     0.101077     0.043669     0.027370     0.000670     0.051541     0.003433    -0.000318     0.001965     0.004089    -0.084138    -0.028232     0.010030     0.018202
   27 C      1.968966     3.151152     0.137688    -0.101469    -0.025971     0.014215     0.001528     0.029646    -0.022248    -0.002211     0.000164     0.068882    -0.064504    -0.029458    -0.023180     0.052638
   28 H      2.932040     2.658402     0.101665     0.108216     0.050603    -0.018713    -0.001478     0.053973    -0.000544    -0.000817    -0.000199     0.045214    -0.043148    -0.015502    -0.014441     0.029944
   29 C     -1.340904    -1.934829    -0.059534    -0.022323    -0.029521    -0.013265    -0.000246     0.032365     0.012638     0.000237     0.001626     0.010053    -0.101485    -0.034998     0.004255     0.030743
   30 C     -2.584808    -1.299378    -0.015837    -0.136747     0.012338    -0.012604    -0.000353     0.017642    -0.010085     0.000412     0.000862    -0.047276     0.019342    -0.028171     0.004803     0.023368
   31 H     -2.634509    -0.218635     0.033298     0.118555    -0.006286     0.052218     0.002250     0.052643    -0.014214    -0.000588     0.001637    -0.036345    -0.024910    -0.018990    -0.008474     0.027464
   32 C     -3.726816    -2.071127    -0.036911     0.018916    -0.024690     0.026476     0.001550     0.036235    -0.023690    -0.002116     0.000586     0.061937    -0.060303    -0.027917    -0.021406     0.049323
   33 C     -3.656407    -3.466042    -0.100418     0.031637     0.000555    -0.023864    -0.000945     0.023889     0.020608     0.000128     0.001958     0.007559    -0.094580    -0.033112    -0.004066     0.037178
   34 C     -2.421464    -4.102890    -0.143772    -0.137230     0.006176     0.015052     0.000875     0.016294    -0.002033    -0.000497     0.005278    -0.044034    -0.165998    -0.056930     0.006263     0.050666
   35 H     -2.353478    -5.183914    -0.193095     0.107480     0.006399    -0.048915    -0.002251     0.049383    -0.004714    -0.000742     0.001905    -0.008340    -0.075586    -0.025374     0.006247     0.019127
   36 C     -1.269546    -3.330632    -0.123090    -0.097608    -0.023606     0.006352     0.000229     0.024447    -0.035717    -0.001594     0.001175     0.015999    -0.058266    -0.026107    -0.021090     0.047197
   37 H     -0.293127    -3.796473    -0.155854     0.106910     0.047080    -0.029371    -0.001927     0.055524    -0.021857    -0.001041     0.001472    -0.010980    -0.042535    -0.015491    -0.014332     0.029822
   38 C     -5.173540    -1.604826     0.000589     0.019406     0.002188     0.001739    -0.000505     0.002840    -0.013308    -0.000936     0.002055    -0.028319    -0.046082    -0.015607    -0.011891     0.027498
   39 C     -5.023697    -4.001060    -0.108460     0.010636     0.014269    -0.018623    -0.001601     0.023516     0.004955    -0.000469     0.001422     0.055052    -0.143455    -0.049202    -0.003022     0.052224
   40 C     -5.919321    -2.928925    -0.050046     0.027935     0.001613     0.031385     0.001368     0.031456     0.037419     0.002533     0.002334    -0.052823    -0.071054    -0.033059    -0.024942     0.058000
   41 C     -7.285901    -3.144094    -0.043893    -0.129969    -0.000288    -0.019118    -0.000746     0.019134    -0.036334    -0.001144     0.003671     0.000563    -0.123182    -0.042746    -0.014931     0.057678
   42 H     -7.974643    -2.307395     0.001561     0.112259    -0.035824     0.039761     0.002352     0.053571    -0.010690    -0.000942     0.001500     0.006079    -0.074738    -0.025069     0.001283     0.023786
   43 C     -7.754239    -4.453491    -0.097190    -0.090367     0.030315     0.011131     0.000640     0.032300     0.009164    -0.000795     0.002059     0.070964    -0.171428    -0.058685    -0.007202     0.065887
   44 H     -8.821545    -4.643181    -0.093374     0.100803    -0.051413    -0.008356     0.000294     0.052089     0.000998    -0.000328     0.001747     0.008743    -0.082960    -0.027823     0.009339     0.018484
   45 C     -6.864758    -5.525171    -0.155496    -0.098380     0.013386     0.029071     0.000644     0.032012     0.025400     0.000019     0.004611    -0.063536    -0.183739    -0.062869    -0.009228     0.072097
   46 H     -7.249118    -6.537990    -0.196441     0.100355    -0.018515    -0.048883    -0.002180     0.052318     0.002577    -0.000243     0.001821    -0.006613    -0.082282    -0.027589     0.009451     0.018139
   47 C     -5.491812    -5.308440    -0.161640    -0.131834    -0.014752     0.013086     0.001357     0.019767    -0.029605    -0.003078     0.004691    -0.007606    -0.168905    -0.057958    -0.000950     0.058908
   48 H     -4.802709    -6.144665    -0.207054     0.105980     0.029271    -0.039595    -0.002082     0.049284    -0.004640    -0.000424     0.002001    -0.009728    -0.074446    -0.024996     0.005625     0.019371
   49 C     -5.992034     0.564107    -0.629162     0.015580    -0.006115     0.020337     0.008292     0.022798    -0.015585    -0.005087     0.012753    -0.028414     0.135498    -0.045025    -0.004242     0.049267
   50 C     -5.530846    -0.655173    -1.133100     0.022893     0.013441    -0.025708     0.012613     0.031633    -0.010138     0.017305    -0.043848    -0.023086     0.039281    -0.035195    -0.023135     0.058330
   51 C     -5.439577    -0.874169    -2.495796    -0.128181    -0.004693     0.019165    -0.006348     0.020727    -0.027753    -0.008774     0.027356    -0.060011     0.000549    -0.042499    -0.013807     0.056306
   52 H     -5.079250    -1.823048    -2.878604     0.111270     0.017734    -0.045364    -0.020795     0.052961    -0.013519    -0.003529     0.009813    -0.030108     0.025682    -0.024600     0.001123     0.023477
   53 C     -5.817664     0.147837    -3.361759    -0.092490     0.001600    -0.000227     0.031264     0.031306    -0.019098    -0.005375     0.012058    -0.040204     0.193829    -0.061458    -0.006240     0.067697
   54 H     -5.752753    -0.003363    -4.433180     0.099193     0.003584    -0.008099    -0.052022     0.052771    -0.012526    -0.000971     0.001537    -0.028582     0.054397    -0.028157     0.009479     0.018678
   55 C     -6.277899     1.365200    -2.864008    -0.097509     0.008463    -0.020181     0.021662     0.030792    -0.032920     0.012517    -0.036840    -0.075268     0.061955    -0.061787    -0.009070     0.070857
   56 H     -6.567234     2.150124    -3.553593     0.099305    -0.013921     0.037841    -0.033259     0.052268    -0.013989     0.001286    -0.004215    -0.031970     0.038041    -0.027668     0.009167     0.018501
   57 C     -6.369109     1.583872    -1.493835    -0.135652     0.007580    -0.015896    -0.010612     0.020561    -0.036908    -0.008118     0.020840    -0.080316     0.028456    -0.060639     0.000262     0.060377
   58 H     -6.727761     2.533231    -1.111178     0.105325    -0.016469     0.043162     0.014919     0.048546    -0.014574    -0.000407     0.000535    -0.033413     0.017652    -0.025197     0.005790     0.019407
   59 C     -5.504334    -0.760187     1.221984     0.022301     0.013831    -0.026385    -0.014553     0.033155    -0.007844    -0.017103     0.042637    -0.015135     0.069272    -0.035192    -0.023669     0.058861
   60 C     -5.975491     0.498647     0.839114     0.018948    -0.005040     0.021187    -0.005122     0.022373    -0.017060     0.004787    -0.016046    -0.033261     0.126237    -0.046258    -0.002318     0.048576
   61 C     -6.332167     1.436999     1.799337    -0.135261     0.005113    -0.013164     0.008855     0.016669    -0.039258     0.006804    -0.018268    -0.085803     0.010384    -0.061238    -0.002210     0.063448
   62 H     -6.698314     2.416289     1.510739     0.102802    -0.016821     0.045664    -0.011211     0.049938    -0.014928    -0.000248     0.000533    -0.033802     0.017779    -0.025597     0.005837     0.019760
   63 C     -6.210713     1.097295     3.142222    -0.094606     0.007163    -0.017652    -0.022896     0.029784    -0.031655    -0.014610     0.037563    -0.072027     0.084307    -0.063440    -0.008622     0.072061
   64 H     -6.483827     1.817377     3.905256     0.097905    -0.013096     0.035081     0.037352     0.052890    -0.013907    -0.001671     0.004319    -0.031587     0.040105    -0.027812     0.009118     0.018694
   65 C     -5.740765    -0.159151     3.519117    -0.092663     0.001699     0.002024    -0.030416     0.030531    -0.019174     0.006380    -0.018362    -0.044448     0.185639    -0.061717    -0.006298     0.068015
   66 H     -5.652217    -0.405176     4.571091     0.098888     0.004616    -0.012756     0.051209     0.052975    -0.012674     0.000726    -0.002303    -0.029308     0.052616    -0.028229     0.009761     0.018468
   67 C     -5.383018    -1.099569     2.557387    -0.129685    -0.004603     0.018939     0.007432     0.020860    -0.027962     0.007295    -0.023559    -0.062232    -0.014241    -0.040989    -0.014141     0.055130
   68 H     -5.015264    -2.078424     2.846128     0.111929     0.018072    -0.046829     0.016468     0.052827    -0.014182     0.002875    -0.008838    -0.031869     0.020238    -0.024796     0.001440     0.023356
 
The sperically averaged electron density of each atom fit to a function of the form exp(a - br) for r >=rmin_cloud_penetration
atom number,atomic symbol, x, y, z, a, b, Rsquared where a and b are in atomic units and Rsquared is the squared correlation coefficient
    1 N      2.119823     0.345536    -0.000591     0.710986     2.176900     0.998776
    2 C      0.905718     0.894368     0.043265     1.051762     2.295426     0.997839
    3 N     -0.230790     0.200354     0.026501     0.114941     2.070501     0.999117
    4 C     -0.101912    -1.124612    -0.038625     0.849753     2.261809     0.996219
    5 N      1.068125    -1.762033    -0.086071     0.749375     2.187545     0.998770
    6 C      2.150940    -0.985376    -0.064787     0.913533     2.265449     0.997574
    7 C      3.478050    -1.645524    -0.116136     1.791076     2.366564     0.997157
    8 C      3.569287    -3.036165    -0.187073     2.582062     2.507965     0.998836
    9 H      2.657817    -3.619699    -0.203765    -0.055519     2.479520     0.999618
   10 C      4.811048    -3.652004    -0.235231     2.964860     2.619913     0.999270
   11 H      4.875128    -4.732659    -0.290362     0.671029     2.695299     0.999105
   12 C      5.970867    -2.885480    -0.212910     2.978900     2.614677     0.998989
   13 H      6.941145    -3.368033    -0.250636     1.344102     2.799873     0.996743
   14 C      5.885272    -1.499526    -0.142269     2.971777     2.621014     0.999268
   15 H      6.787974    -0.899716    -0.124783     0.650825     2.691509     0.999120
   16 C      4.644988    -0.880683    -0.094082     2.420608     2.479214     0.999191
   17 H      4.562664     0.197138    -0.039041    -0.129291     2.464713     0.999673
   18 C      0.811398     2.372240     0.115312     1.999519     2.406784     0.997203
   19 C     -0.437252     2.994111     0.161230     1.792010     2.361931     0.999606
   20 H     -1.329344     2.381340     0.143373    -1.523547     2.166569     0.999812
   21 C     -0.524620     4.376586     0.228571     2.783737     2.587558     0.999369
   22 H     -1.497418     4.853327     0.263974    -0.425214     2.486317     0.998426
   23 C      0.631612     5.148514     0.250651     2.999725     2.619204     0.998973
   24 H      0.561686     6.229312     0.303331     1.453863     2.820030     0.996290
   25 C      1.877785     4.533429     0.205110     2.977255     2.620190     0.999240
   26 H      2.780572     5.133140     0.222189     0.657392     2.689146     0.999047
   27 C      1.968966     3.151152     0.137688     2.671653     2.526781     0.998606
   28 H      2.932040     2.658402     0.101665    -0.101994     2.470618     0.999634
   29 C     -1.340904    -1.934829    -0.059534     1.012706     2.221620     0.995259
   30 C     -2.584808    -1.299378    -0.015837     0.206710     1.985913     0.999928
   31 H     -2.634509    -0.218635     0.033298    -1.620554     2.048798     0.999870
   32 C     -3.726816    -2.071127    -0.036911     0.908210     2.129716     0.998465
   33 C     -3.656407    -3.466042    -0.100418     1.369970     2.252621     0.998824
   34 C     -2.421464    -4.102890    -0.143772     1.239917     2.262461     0.999435
   35 H     -2.353478    -5.183914    -0.193095    -0.272250     2.474144     0.998655
   36 C     -1.269546    -3.330632    -0.123090     1.578766     2.335844     0.996651
   37 H     -0.293127    -3.796473    -0.155854    -0.083245     2.483026     0.998825
   38 C     -5.173540    -1.604826     0.000589    -0.673796     1.800978     0.999922
   39 C     -5.023697    -4.001060    -0.108460     1.425424     2.255202     0.997705
   40 C     -5.919321    -2.928925    -0.050046     1.501326     2.240502     0.995682
   41 C     -7.285901    -3.144094    -0.043893     1.088478     2.189077     0.999595
   42 H     -7.974643    -2.307395     0.001561    -1.354665     2.186630     0.999939
   43 C     -7.754239    -4.453491    -0.097190     2.183554     2.474140     0.998562
   44 H     -8.821545    -4.643181    -0.093374     0.331044     2.636875     0.997805
   45 C     -6.864758    -5.525171    -0.155496     2.645807     2.569274     0.997337
   46 H     -7.249118    -6.537990    -0.196441     1.114879     2.776329     0.997103
   47 C     -5.491812    -5.308440    -0.161640     1.662201     2.331013     0.999859
   48 H     -4.802709    -6.144665    -0.207054     0.019124     2.513400     0.998817
   49 C     -5.992034     0.564107    -0.629162     1.149364     2.204947     0.998917
   50 C     -5.530846    -0.655173    -1.133100     1.258376     2.197571     0.997314
   51 C     -5.439577    -0.874169    -2.495796     0.946721     2.166523     0.999927
   52 H     -5.079250    -1.823048    -2.878604    -1.369726     2.186342     0.999961
   53 C     -5.817664     0.147837    -3.361759     2.267152     2.491267     0.998397
   54 H     -5.752753    -0.003363    -4.433180     0.296346     2.615239     0.999235
   55 C     -6.277899     1.365200    -2.864008     2.451636     2.518470     0.998316
   56 H     -6.567234     2.150124    -3.553593     0.384280     2.617349     0.999083
   57 C     -6.369109     1.583872    -1.493835     1.380377     2.277465     0.999766
   58 H     -6.727761     2.533231    -1.111178    -0.478558     2.415002     0.998599
   59 C     -5.504334    -0.760187     1.221984     1.230583     2.191311     0.997417
   60 C     -5.975491     0.498647     0.839114     1.304622     2.235490     0.998266
   61 C     -6.332167     1.436999     1.799337     1.357757     2.273328     0.999722
   62 H     -6.698314     2.416289     1.510739    -0.454867     2.416779     0.998745
   63 C     -6.210713     1.097295     3.142222     2.532299     2.534755     0.998642
   64 H     -6.483827     1.817377     3.905256     0.389449     2.617405     0.999086
   65 C     -5.740765    -0.159151     3.519117     2.265260     2.490876     0.998394
   66 H     -5.652217    -0.405176     4.571091     0.297050     2.615423     0.999240
   67 C     -5.383018    -1.099569     2.557387     0.950610     2.166688     0.999923
   68 H     -5.015264    -2.078424     2.846128    -1.371571     2.186499     0.999964
 
  
 Since the system is non-periodic, the total dipole and quadrupole moments were computed relative to the system center of mass.
 Multipole moments (in atomic units) using the net atomic charges:
 Partial_charge_dipole_x =   -0.2225   Partial_charge_dipole_y =   -0.0107   Partial_charge_dipole_z =   -0.0007     Partial_charge_dipole_magnitude =    0.2228
 Partial_charge_quadrupole_xy =   -1.3497   Partial_charge_quadrupole_xz =   -0.2650   Partial_charge_quadrupole_yz =    0.9481   Partial_charge_quadrupole_x2minusy2 =   -3.8612   Partial_charge_quadrupole_3z2minusr2 =  -36.0432
 Eigenvalues of traceless quadrupole moment tensor =  -12.0619   3.6517   8.4102
 Multipole moments (in atomic units) using the net atomic charges and atomic dipoles:
 Dipole_x =   -0.1994   Dipole_y =   -0.0047   Dipole_z =    0.0015   Dipole_magnitude =    0.1994
 Quadrupole_xy =   -2.1231   Quadrupole_xz =   -0.3373   Quadrupole_yz =    1.1144   Quadrupole_x2minusy2 =   -5.9212   Quadrupole_3z2minusr2 =  -40.1132
 Eigenvalues of traceless quadrupole moment tensor =  -13.4281   3.0424  10.3858
 Multipole moments (in atomic units) using the net atomic charges, atomic dipoles, and atomic quadrupoles:
 Dipole_x =   -0.1994   Dipole_y =   -0.0047   Dipole_z =    0.0015   Dipole_magnitude =    0.1994
 Full_quadrupole_xy =   -2.5357   Full_quadrupole_xz =   -0.3571   Full_quadrupole_yz =    1.1753   Full_quadrupole_x2minusy2 =   -6.8050   Full_quadrupole_3z2minusr2 =  -41.3690
 Eigenvalues of traceless quadrupole moment tensor =  -13.8501   2.6515  11.1986
  
 2021/05/26  14:31:15
