   68
Nonperiodic system
N       2.119823     0.345536    -0.000591    77.618663
C       0.905718     0.894368     0.043265    64.448318
N      -0.230790     0.200354     0.026501    76.530153
C      -0.101912    -1.124612    -0.038625    64.295676
N       1.068125    -1.762033    -0.086071    77.278937
C       2.150940    -0.985376    -0.064787    64.588003
C       3.478050    -1.645524    -0.116136    79.843360
C       3.569287    -3.036165    -0.187073    85.388883
H       2.657817    -3.619699    -0.203765     9.672561
C       4.811048    -3.652004    -0.235231    82.685899
H       4.875128    -4.732659    -0.290362     8.453020
C       5.970867    -2.885480    -0.212910    82.896782
H       6.941145    -3.368033    -0.250636     8.585596
C       5.885272    -1.499526    -0.142269    82.807614
H       6.787974    -0.899716    -0.124783     8.441007
C       4.644988    -0.880683    -0.094082    84.890917
H       4.562664     0.197138    -0.039041     9.668483
C       0.811398     2.372240     0.115312    80.239923
C      -0.437252     2.994111     0.161230    84.659749
H      -1.329344     2.381340     0.143373     9.564859
C      -0.524620     4.376586     0.228571    82.720612
H      -1.497418     4.853327     0.263974     8.416074
C       0.631612     5.148514     0.250651    82.804288
H       0.561686     6.229312     0.303331     8.608646
C       1.877785     4.533429     0.205110    82.995018
H       2.780572     5.133140     0.222189     8.446441
C       1.968966     3.151152     0.137688    85.084024
H       2.932040     2.658402     0.101665     9.650515
C      -1.340904    -1.934829    -0.059534    79.813787
C      -2.584808    -1.299378    -0.015837    90.654857
H      -2.634509    -0.218635     0.033298    11.295661
C      -3.726816    -2.071127    -0.036911    83.380257
C      -3.656407    -3.466042    -0.100418    80.052861
C      -2.421464    -4.102890    -0.143772    84.309065
H      -2.353478    -5.183914    -0.193095     8.678731
C      -1.269546    -3.330632    -0.123090    84.906258
H      -0.293127    -3.796473    -0.155854     9.558036
C      -5.173540    -1.604826     0.000589    83.028642
C      -5.023697    -4.001060    -0.108460    80.852566
C      -5.919321    -2.928925    -0.050046    83.643561
C      -7.285901    -3.144094    -0.043893    86.884485
H      -7.974643    -2.307395     0.001561     9.327351
C      -7.754239    -4.453491    -0.097190    83.155797
H      -8.821545    -4.643181    -0.093374     8.403613
C      -6.864758    -5.525171    -0.155496    84.092367
H      -7.249118    -6.537990    -0.196441     8.524409
C      -5.491812    -5.308440    -0.161640    85.380125
H      -4.802709    -6.144665    -0.207054     8.893288
C      -5.992034     0.564107    -0.629162    80.673019
C      -5.530846    -0.655173    -1.133100    83.325597
C      -5.439577    -0.874169    -2.495796    86.559025
H      -5.079250    -1.823048    -2.878604     9.340739
C      -5.817664     0.147837    -3.361759    83.224891
H      -5.752753    -0.003363    -4.433180     8.454794
C      -6.277899     1.365200    -2.864008    84.378409
H      -6.567234     2.150124    -3.553593     8.556885
C      -6.369109     1.583872    -1.493835    85.574476
H      -6.727761     2.533231    -1.111178     8.938983
C      -5.504334    -0.760187     1.221984    83.487531
C      -5.975491     0.498647     0.839114    80.430000
C      -6.332167     1.436999     1.799337    85.501639
H      -6.698314     2.416289     1.510739     8.976393
C      -6.210713     1.097295     3.142222    84.160589
H      -6.483827     1.817377     3.905256     8.584281
C      -5.740765    -0.159151     3.519117    83.258085
H      -5.652217    -0.405176     4.571091     8.450481
C      -5.383018    -1.099569     2.557387    86.659072
H      -5.015264    -2.078424     2.846128     9.326868
  
Same information as above printed with atom number.
   1 N      2.119823     0.345536    -0.000591    77.618663
   2 C      0.905718     0.894368     0.043265    64.448318
   3 N     -0.230790     0.200354     0.026501    76.530153
   4 C     -0.101912    -1.124612    -0.038625    64.295676
   5 N      1.068125    -1.762033    -0.086071    77.278937
   6 C      2.150940    -0.985376    -0.064787    64.588003
   7 C      3.478050    -1.645524    -0.116136    79.843360
   8 C      3.569287    -3.036165    -0.187073    85.388883
   9 H      2.657817    -3.619699    -0.203765     9.672561
  10 C      4.811048    -3.652004    -0.235231    82.685899
  11 H      4.875128    -4.732659    -0.290362     8.453020
  12 C      5.970867    -2.885480    -0.212910    82.896782
  13 H      6.941145    -3.368033    -0.250636     8.585596
  14 C      5.885272    -1.499526    -0.142269    82.807614
  15 H      6.787974    -0.899716    -0.124783     8.441007
  16 C      4.644988    -0.880683    -0.094082    84.890917
  17 H      4.562664     0.197138    -0.039041     9.668483
  18 C      0.811398     2.372240     0.115312    80.239923
  19 C     -0.437252     2.994111     0.161230    84.659749
  20 H     -1.329344     2.381340     0.143373     9.564859
  21 C     -0.524620     4.376586     0.228571    82.720612
  22 H     -1.497418     4.853327     0.263974     8.416074
  23 C      0.631612     5.148514     0.250651    82.804288
  24 H      0.561686     6.229312     0.303331     8.608646
  25 C      1.877785     4.533429     0.205110    82.995018
  26 H      2.780572     5.133140     0.222189     8.446441
  27 C      1.968966     3.151152     0.137688    85.084024
  28 H      2.932040     2.658402     0.101665     9.650515
  29 C     -1.340904    -1.934829    -0.059534    79.813787
  30 C     -2.584808    -1.299378    -0.015837    90.654857
  31 H     -2.634509    -0.218635     0.033298    11.295661
  32 C     -3.726816    -2.071127    -0.036911    83.380257
  33 C     -3.656407    -3.466042    -0.100418    80.052861
  34 C     -2.421464    -4.102890    -0.143772    84.309065
  35 H     -2.353478    -5.183914    -0.193095     8.678731
  36 C     -1.269546    -3.330632    -0.123090    84.906258
  37 H     -0.293127    -3.796473    -0.155854     9.558036
  38 C     -5.173540    -1.604826     0.000589    83.028642
  39 C     -5.023697    -4.001060    -0.108460    80.852566
  40 C     -5.919321    -2.928925    -0.050046    83.643561
  41 C     -7.285901    -3.144094    -0.043893    86.884485
  42 H     -7.974643    -2.307395     0.001561     9.327351
  43 C     -7.754239    -4.453491    -0.097190    83.155797
  44 H     -8.821545    -4.643181    -0.093374     8.403613
  45 C     -6.864758    -5.525171    -0.155496    84.092367
  46 H     -7.249118    -6.537990    -0.196441     8.524409
  47 C     -5.491812    -5.308440    -0.161640    85.380125
  48 H     -4.802709    -6.144665    -0.207054     8.893288
  49 C     -5.992034     0.564107    -0.629162    80.673019
  50 C     -5.530846    -0.655173    -1.133100    83.325597
  51 C     -5.439577    -0.874169    -2.495796    86.559025
  52 H     -5.079250    -1.823048    -2.878604     9.340739
  53 C     -5.817664     0.147837    -3.361759    83.224891
  54 H     -5.752753    -0.003363    -4.433180     8.454794
  55 C     -6.277899     1.365200    -2.864008    84.378409
  56 H     -6.567234     2.150124    -3.553593     8.556885
  57 C     -6.369109     1.583872    -1.493835    85.574476
  58 H     -6.727761     2.533231    -1.111178     8.938983
  59 C     -5.504334    -0.760187     1.221984    83.487531
  60 C     -5.975491     0.498647     0.839114    80.430000
  61 C     -6.332167     1.436999     1.799337    85.501639
  62 H     -6.698314     2.416289     1.510739     8.976393
  63 C     -6.210713     1.097295     3.142222    84.160589
  64 H     -6.483827     1.817377     3.905256     8.584281
  65 C     -5.740765    -0.159151     3.519117    83.258085
  66 H     -5.652217    -0.405176     4.571091     8.450481
  67 C     -5.383018    -1.099569     2.557387    86.659072
  68 H     -5.015264    -2.078424     2.846128     9.326868
