   72
Nonperiodic system
N      -0.032210    -0.038430     0.087210    27.553795
C      -1.442030    -0.134110     0.093010    26.643047
C      -2.204420     0.538120    -0.863830    30.886847
C      -3.586740     0.450870    -0.847540    30.349787
C      -4.255690    -0.323290     0.103480    28.204654
C      -3.482260    -0.999920     1.049430    30.363545
C      -2.100440    -0.901230     1.055500    30.970274
H      -1.706370     1.142610    -1.612760     3.569432
H      -4.158800     1.002450    -1.585800     3.590669
H      -3.969760    -1.622980     1.791500     3.585418
H      -1.520870    -1.433170     1.800820     3.567517
C       0.589980     1.204810    -0.177220    26.791631
C       1.716150     1.271630    -0.998740    31.362551
C       2.318200     2.497260    -1.238400    29.667539
C       1.800420     3.662320    -0.686850    30.944398
C       0.669630     3.612510     0.126760    26.486036
C       0.082510     2.377090     0.383540    32.086519
H       2.115460     0.364300    -1.435960     3.605389
H       3.196270     2.544420    -1.872910     3.380546
H       2.277390     4.615960    -0.887300     3.597139
H      -0.788800     2.318030     1.027410     3.792802
C       0.756480    -1.183070     0.345210    26.670643
C       1.901320    -1.088750     1.139520    31.148468
C       2.677730    -2.212560     1.382120    29.566709
C       2.317300    -3.447770     0.856570    30.308183
C       1.172900    -3.545160     0.073820    29.507911
C       0.401430    -2.422950    -0.190810    31.209458
H       2.179470    -0.129100     1.559100     3.610519
H       3.564780    -2.122500     1.999140     3.390017
H       2.921800    -4.324970     1.054760     3.473398
H       0.882730    -4.500960    -0.348010     3.398807
H      -0.484250    -2.500420    -0.810470     3.601741
N      -9.956571    -0.722070     0.114580    27.546413
C      -8.547201    -0.620200     0.113460    26.640665
C      -7.835741    -0.623430    -1.087640    30.938962
C      -6.453270    -0.538250    -1.084700    30.415601
C      -5.734060    -0.424320     0.107380    28.245191
C      -6.456980    -0.409960     1.302420    30.336581
C      -7.838201    -0.517180     1.311440    31.035002
H      -8.373471    -0.709250    -2.024570     3.555498
H      -5.920770    -0.569110    -2.029160     3.571965
H      -5.929910    -0.305570     2.244650     3.575861
H      -8.378131    -0.506930     2.251000     3.562256
C     -10.599631    -1.614880    -0.775630    26.817740
C     -11.762991    -1.230990    -1.444420    31.339165
C     -12.384491    -2.122040    -2.305460    29.665951
C     -11.850421    -3.385520    -2.526080    30.973596
C     -10.683311    -3.778880    -1.873630    26.484906
C     -10.075771    -2.889380    -0.992080    32.134834
H     -12.174961    -0.242640    -1.279240     3.605240
H     -13.291021    -1.822150    -2.819350     3.381282
H     -12.343041    -4.071120    -3.207510     3.597648
H      -9.175221    -3.184790    -0.463840     3.785494
C     -10.723571     0.058510     1.009500    26.705825
C     -11.831411    -0.492090     1.657610    31.121907
C     -12.587561     0.280560     2.527020    29.603897
C     -12.242581     1.602930     2.780110    30.247446
C     -11.134501     2.149480     2.143500    29.546751
C     -10.384291     1.390570     1.257000    31.131428
H     -12.097281    -1.525810     1.470400     3.608528
H     -13.446051    -0.161110     3.020580     3.398144
H     -12.830971     2.201140     3.465770     3.476072
H     -10.856871     3.181560     2.326320     3.407529
H      -9.527491     1.823440     0.754080     3.607386
C       0.079760     4.869590     0.711530    31.758994
H       0.838770     5.645470     0.831450     3.524113
H      -0.702630     5.268420     0.058130     3.447828
H      -0.371860     4.679830     1.687660     3.447478
C     -10.075921    -5.135520    -2.120150    31.688837
H     -10.827261    -5.850850    -2.460840     3.530940
H      -9.299761    -5.076400    -2.889670     3.455442
H      -9.611661    -5.533050    -1.214910     3.452651
  
Same information as above printed with atom number.
   1 N     -0.032210    -0.038430     0.087210    27.553795
   2 C     -1.442030    -0.134110     0.093010    26.643047
   3 C     -2.204420     0.538120    -0.863830    30.886847
   4 C     -3.586740     0.450870    -0.847540    30.349787
   5 C     -4.255690    -0.323290     0.103480    28.204654
   6 C     -3.482260    -0.999920     1.049430    30.363545
   7 C     -2.100440    -0.901230     1.055500    30.970274
   8 H     -1.706370     1.142610    -1.612760     3.569432
   9 H     -4.158800     1.002450    -1.585800     3.590669
  10 H     -3.969760    -1.622980     1.791500     3.585418
  11 H     -1.520870    -1.433170     1.800820     3.567517
  12 C      0.589980     1.204810    -0.177220    26.791631
  13 C      1.716150     1.271630    -0.998740    31.362551
  14 C      2.318200     2.497260    -1.238400    29.667539
  15 C      1.800420     3.662320    -0.686850    30.944398
  16 C      0.669630     3.612510     0.126760    26.486036
  17 C      0.082510     2.377090     0.383540    32.086519
  18 H      2.115460     0.364300    -1.435960     3.605389
  19 H      3.196270     2.544420    -1.872910     3.380546
  20 H      2.277390     4.615960    -0.887300     3.597139
  21 H     -0.788800     2.318030     1.027410     3.792802
  22 C      0.756480    -1.183070     0.345210    26.670643
  23 C      1.901320    -1.088750     1.139520    31.148468
  24 C      2.677730    -2.212560     1.382120    29.566709
  25 C      2.317300    -3.447770     0.856570    30.308183
  26 C      1.172900    -3.545160     0.073820    29.507911
  27 C      0.401430    -2.422950    -0.190810    31.209458
  28 H      2.179470    -0.129100     1.559100     3.610519
  29 H      3.564780    -2.122500     1.999140     3.390017
  30 H      2.921800    -4.324970     1.054760     3.473398
  31 H      0.882730    -4.500960    -0.348010     3.398807
  32 H     -0.484250    -2.500420    -0.810470     3.601741
  33 N     -9.956571    -0.722070     0.114580    27.546413
  34 C     -8.547201    -0.620200     0.113460    26.640665
  35 C     -7.835741    -0.623430    -1.087640    30.938962
  36 C     -6.453270    -0.538250    -1.084700    30.415601
  37 C     -5.734060    -0.424320     0.107380    28.245191
  38 C     -6.456980    -0.409960     1.302420    30.336581
  39 C     -7.838201    -0.517180     1.311440    31.035002
  40 H     -8.373471    -0.709250    -2.024570     3.555498
  41 H     -5.920770    -0.569110    -2.029160     3.571965
  42 H     -5.929910    -0.305570     2.244650     3.575861
  43 H     -8.378131    -0.506930     2.251000     3.562256
  44 C    -10.599631    -1.614880    -0.775630    26.817740
  45 C    -11.762991    -1.230990    -1.444420    31.339165
  46 C    -12.384491    -2.122040    -2.305460    29.665951
  47 C    -11.850421    -3.385520    -2.526080    30.973596
  48 C    -10.683311    -3.778880    -1.873630    26.484906
  49 C    -10.075771    -2.889380    -0.992080    32.134834
  50 H    -12.174961    -0.242640    -1.279240     3.605240
  51 H    -13.291021    -1.822150    -2.819350     3.381282
  52 H    -12.343041    -4.071120    -3.207510     3.597648
  53 H     -9.175221    -3.184790    -0.463840     3.785494
  54 C    -10.723571     0.058510     1.009500    26.705825
  55 C    -11.831411    -0.492090     1.657610    31.121907
  56 C    -12.587561     0.280560     2.527020    29.603897
  57 C    -12.242581     1.602930     2.780110    30.247446
  58 C    -11.134501     2.149480     2.143500    29.546751
  59 C    -10.384291     1.390570     1.257000    31.131428
  60 H    -12.097281    -1.525810     1.470400     3.608528
  61 H    -13.446051    -0.161110     3.020580     3.398144
  62 H    -12.830971     2.201140     3.465770     3.476072
  63 H    -10.856871     3.181560     2.326320     3.407529
  64 H     -9.527491     1.823440     0.754080     3.607386
  65 C      0.079760     4.869590     0.711530    31.758994
  66 H      0.838770     5.645470     0.831450     3.524113
  67 H     -0.702630     5.268420     0.058130     3.447828
  68 H     -0.371860     4.679830     1.687660     3.447478
  69 C    -10.075921    -5.135520    -2.120150    31.688837
  70 H    -10.827261    -5.850850    -2.460840     3.530940
  71 H     -9.299761    -5.076400    -2.889670     3.455442
  72 H     -9.611661    -5.533050    -1.214910     3.452651
