   72
Nonperiodic system
N      -0.032210    -0.038430     0.087210    12.539325
C      -1.442030    -0.134110     0.093010    11.411001
C      -2.204420     0.538120    -0.863830    13.096238
C      -3.586740     0.450870    -0.847540    12.899331
C      -4.255690    -0.323290     0.103480    12.011095
C      -3.482260    -0.999920     1.049430    12.901490
C      -2.100440    -0.901230     1.055500    13.122142
H      -1.706370     1.142610    -1.612760     1.701982
H      -4.158800     1.002450    -1.585800     1.725675
H      -3.969760    -1.622980     1.791500     1.723409
H      -1.520870    -1.433170     1.800820     1.700261
C       0.589980     1.204810    -0.177220    11.432779
C       1.716150     1.271630    -0.998740    13.240216
C       2.318200     2.497260    -1.238400    12.672264
C       1.800420     3.662320    -0.686850    13.156008
C       0.669630     3.612510     0.126760    11.424835
C       0.082510     2.377090     0.383540    13.471402
H       2.115460     0.364300    -1.435960     1.706242
H       3.196270     2.544420    -1.872910     1.676684
H       2.277390     4.615960    -0.887300     1.729949
H      -0.788800     2.318030     1.027410     1.754172
C       0.756480    -1.183070     0.345210    11.409623
C       1.901320    -1.088750     1.139520    13.169399
C       2.677730    -2.212560     1.382120    12.660388
C       2.317300    -3.447770     0.856570    12.908121
C       1.172900    -3.545160     0.073820    12.644689
C       0.401430    -2.422950    -0.190810    13.188383
H       2.179470    -0.129100     1.559100     1.707496
H       3.564780    -2.122500     1.999140     1.676552
H       2.921800    -4.324970     1.054760     1.700293
H       0.882730    -4.500960    -0.348010     1.679487
H      -0.484250    -2.500420    -0.810470     1.705824
N      -9.956571    -0.722070     0.114580    12.543192
C      -8.547201    -0.620200     0.113460    11.408644
C      -7.835741    -0.623430    -1.087640    13.114844
C      -6.453270    -0.538250    -1.084700    12.918292
C      -5.734060    -0.424320     0.107380    12.023947
C      -6.456980    -0.409960     1.302420    12.897294
C      -7.838201    -0.517180     1.311440    13.143558
H      -8.373471    -0.709250    -2.024570     1.691550
H      -5.920770    -0.569110    -2.029160     1.715418
H      -5.929910    -0.305570     2.244650     1.716673
H      -8.378131    -0.506930     2.251000     1.692438
C     -10.599631    -1.614880    -0.775630    11.438436
C     -11.762991    -1.230990    -1.444420    13.232558
C     -12.384491    -2.122040    -2.305460    12.672027
C     -11.850421    -3.385520    -2.526080    13.163818
C     -10.683311    -3.778880    -1.873630    11.428173
C     -10.075771    -2.889380    -0.992080    13.482622
H     -12.174961    -0.242640    -1.279240     1.706524
H     -13.291021    -1.822150    -2.819350     1.677558
H     -12.343041    -4.071120    -3.207510     1.729988
H      -9.175221    -3.184790    -0.463840     1.746512
C     -10.723571     0.058510     1.009500    11.424891
C     -11.831411    -0.492090     1.657610    13.158927
C     -12.587561     0.280560     2.527020    12.671506
C     -12.242581     1.602930     2.780110    12.885955
C     -11.134501     2.149480     2.143500    12.654149
C     -10.384291     1.390570     1.257000    13.164948
H     -12.097281    -1.525810     1.470400     1.706943
H     -13.446051    -0.161110     3.020580     1.682502
H     -12.830971     2.201140     3.465770     1.701907
H     -10.856871     3.181560     2.326320     1.686517
H      -9.527491     1.823440     0.754080     1.708090
C       0.079760     4.869590     0.711530    13.733433
H       0.838770     5.645470     0.831450     1.701816
H      -0.702630     5.268420     0.058130     1.685521
H      -0.371860     4.679830     1.687660     1.680511
C     -10.075921    -5.135520    -2.120150    13.711101
H     -10.827261    -5.850850    -2.460840     1.704737
H      -9.299761    -5.076400    -2.889670     1.688870
H      -9.611661    -5.533050    -1.214910     1.682096
  
Same information as above printed with atom number.
   1 N     -0.032210    -0.038430     0.087210    12.539325
   2 C     -1.442030    -0.134110     0.093010    11.411001
   3 C     -2.204420     0.538120    -0.863830    13.096238
   4 C     -3.586740     0.450870    -0.847540    12.899331
   5 C     -4.255690    -0.323290     0.103480    12.011095
   6 C     -3.482260    -0.999920     1.049430    12.901490
   7 C     -2.100440    -0.901230     1.055500    13.122142
   8 H     -1.706370     1.142610    -1.612760     1.701982
   9 H     -4.158800     1.002450    -1.585800     1.725675
  10 H     -3.969760    -1.622980     1.791500     1.723409
  11 H     -1.520870    -1.433170     1.800820     1.700261
  12 C      0.589980     1.204810    -0.177220    11.432779
  13 C      1.716150     1.271630    -0.998740    13.240216
  14 C      2.318200     2.497260    -1.238400    12.672264
  15 C      1.800420     3.662320    -0.686850    13.156008
  16 C      0.669630     3.612510     0.126760    11.424835
  17 C      0.082510     2.377090     0.383540    13.471402
  18 H      2.115460     0.364300    -1.435960     1.706242
  19 H      3.196270     2.544420    -1.872910     1.676684
  20 H      2.277390     4.615960    -0.887300     1.729949
  21 H     -0.788800     2.318030     1.027410     1.754172
  22 C      0.756480    -1.183070     0.345210    11.409623
  23 C      1.901320    -1.088750     1.139520    13.169399
  24 C      2.677730    -2.212560     1.382120    12.660388
  25 C      2.317300    -3.447770     0.856570    12.908121
  26 C      1.172900    -3.545160     0.073820    12.644689
  27 C      0.401430    -2.422950    -0.190810    13.188383
  28 H      2.179470    -0.129100     1.559100     1.707496
  29 H      3.564780    -2.122500     1.999140     1.676552
  30 H      2.921800    -4.324970     1.054760     1.700293
  31 H      0.882730    -4.500960    -0.348010     1.679487
  32 H     -0.484250    -2.500420    -0.810470     1.705824
  33 N     -9.956571    -0.722070     0.114580    12.543192
  34 C     -8.547201    -0.620200     0.113460    11.408644
  35 C     -7.835741    -0.623430    -1.087640    13.114844
  36 C     -6.453270    -0.538250    -1.084700    12.918292
  37 C     -5.734060    -0.424320     0.107380    12.023947
  38 C     -6.456980    -0.409960     1.302420    12.897294
  39 C     -7.838201    -0.517180     1.311440    13.143558
  40 H     -8.373471    -0.709250    -2.024570     1.691550
  41 H     -5.920770    -0.569110    -2.029160     1.715418
  42 H     -5.929910    -0.305570     2.244650     1.716673
  43 H     -8.378131    -0.506930     2.251000     1.692438
  44 C    -10.599631    -1.614880    -0.775630    11.438436
  45 C    -11.762991    -1.230990    -1.444420    13.232558
  46 C    -12.384491    -2.122040    -2.305460    12.672027
  47 C    -11.850421    -3.385520    -2.526080    13.163818
  48 C    -10.683311    -3.778880    -1.873630    11.428173
  49 C    -10.075771    -2.889380    -0.992080    13.482622
  50 H    -12.174961    -0.242640    -1.279240     1.706524
  51 H    -13.291021    -1.822150    -2.819350     1.677558
  52 H    -12.343041    -4.071120    -3.207510     1.729988
  53 H     -9.175221    -3.184790    -0.463840     1.746512
  54 C    -10.723571     0.058510     1.009500    11.424891
  55 C    -11.831411    -0.492090     1.657610    13.158927
  56 C    -12.587561     0.280560     2.527020    12.671506
  57 C    -12.242581     1.602930     2.780110    12.885955
  58 C    -11.134501     2.149480     2.143500    12.654149
  59 C    -10.384291     1.390570     1.257000    13.164948
  60 H    -12.097281    -1.525810     1.470400     1.706943
  61 H    -13.446051    -0.161110     3.020580     1.682502
  62 H    -12.830971     2.201140     3.465770     1.701907
  63 H    -10.856871     3.181560     2.326320     1.686517
  64 H     -9.527491     1.823440     0.754080     1.708090
  65 C      0.079760     4.869590     0.711530    13.733433
  66 H      0.838770     5.645470     0.831450     1.701816
  67 H     -0.702630     5.268420     0.058130     1.685521
  68 H     -0.371860     4.679830     1.687660     1.680511
  69 C    -10.075921    -5.135520    -2.120150    13.711101
  70 H    -10.827261    -5.850850    -2.460840     1.704737
  71 H     -9.299761    -5.076400    -2.889670     1.688870
  72 H     -9.611661    -5.533050    -1.214910     1.682096
