   72
Nonperiodic system
N     -0.032210    -0.038430     0.087210    -0.224062
C     -1.442030    -0.134110     0.093010     0.201277
C     -2.204420     0.538120    -0.863830    -0.180897
C     -3.586740     0.450870    -0.847540    -0.124024
C     -4.255690    -0.323290     0.103480     0.046992
C     -3.482260    -0.999920     1.049430    -0.123860
C     -2.100440    -0.901230     1.055500    -0.184578
H     -1.706370     1.142610    -1.612760     0.116476
H     -4.158800     1.002450    -1.585800     0.101466
H     -3.969760    -1.622980     1.791500     0.101974
H     -1.520870    -1.433170     1.800820     0.117192
C      0.589980     1.204810    -0.177220     0.210755
C      1.716150     1.271630    -0.998740    -0.205608
C      2.318200     2.497260    -1.238400    -0.066993
C      1.800420     3.662320    -0.686850    -0.190910
C      0.669630     3.612510     0.126760     0.181542
C      0.082510     2.377090     0.383540    -0.262316
H      2.115460     0.364300    -1.435960     0.118009
H      3.196270     2.544420    -1.872910     0.098694
H      2.277390     4.615960    -0.887300     0.100993
H     -0.788800     2.318030     1.027410     0.117184
C      0.756480    -1.183070     0.345210     0.204936
C      1.901320    -1.088750     1.139520    -0.193818
C      2.677730    -2.212560     1.382120    -0.074712
C      2.317300    -3.447770     0.856570    -0.125871
C      1.172900    -3.545160     0.073820    -0.073196
C      0.401430    -2.422950    -0.190810    -0.195977
H      2.179470    -0.129100     1.559100     0.117552
H      3.564780    -2.122500     1.999140     0.099274
H      2.921800    -4.324970     1.054760     0.099155
H      0.882730    -4.500960    -0.348010     0.099248
H     -0.484250    -2.500420    -0.810470     0.117623
N     -9.956571    -0.722070     0.114580    -0.224058
C     -8.547201    -0.620200     0.113460     0.202925
C     -7.835741    -0.623430    -1.087640    -0.183726
C     -6.453270    -0.538250    -1.084700    -0.127333
C     -5.734060    -0.424320     0.107380     0.046202
C     -6.456980    -0.409960     1.302420    -0.124935
C     -7.838201    -0.517180     1.311440    -0.188311
H     -8.373471    -0.709250    -2.024570     0.119430
H     -5.920770    -0.569110    -2.029160     0.104228
H     -5.929910    -0.305570     2.244650     0.103939
H     -8.378131    -0.506930     2.251000     0.119915
C    -10.599631    -1.614880    -0.775630     0.209558
C    -11.762991    -1.230990    -1.444420    -0.203605
C    -12.384491    -2.122040    -2.305460    -0.066860
C    -11.850421    -3.385520    -2.526080    -0.191761
C    -10.683311    -3.778880    -1.873630     0.179549
C    -10.075771    -2.889380    -0.992080    -0.262809
H    -12.174961    -0.242640    -1.279240     0.117791
H    -13.291021    -1.822150    -2.819350     0.098845
H    -12.343041    -4.071120    -3.207510     0.100970
H     -9.175221    -3.184790    -0.463840     0.119022
C    -10.723571     0.058510     1.009500     0.201970
C    -11.831411    -0.492090     1.657610    -0.190904
C    -12.587561     0.280560     2.527020    -0.077413
C    -12.242581     1.602930     2.780110    -0.122240
C    -11.134501     2.149480     2.143500    -0.073901
C    -10.384291     1.390570     1.257000    -0.192985
H    -12.097281    -1.525810     1.470400     0.117804
H    -13.446051    -0.161110     3.020580     0.098515
H    -12.830971     2.201140     3.465770     0.098650
H    -10.856871     3.181560     2.326320     0.097243
H     -9.527491     1.823440     0.754080     0.116399
C      0.079760     4.869590     0.711530    -0.395418
H      0.838770     5.645470     0.831450     0.122297
H     -0.702630     5.268420     0.058130     0.124917
H     -0.371860     4.679830     1.687660     0.124923
C    -10.075921    -5.135520    -2.120150    -0.391593
H    -10.827261    -5.850850    -2.460840     0.121113
H     -9.299761    -5.076400    -2.889670     0.123368
H     -9.611661    -5.533050    -1.214910     0.124753
 
 Chargemol version 3.5 September 26, 2017.
See ddec.sourceforge.net for latest version.
 
Computational parameters:
Number of radial integration shells =    100
Cutoff radius (pm) =    500
Error in the integrated total number of electrons before renormalization (e) =    4.2289E-09
Charge convergence tolerance =    1.0000E-05
Minimum radius for electron cloud penetration fitting (pm) =    200
Minimum decay exponent for electron density of buried atom tails =   1.7500
Maximum decay exponent for electron density of buried atom tails =  2.5000
Number of iterations to convergence =      7
 
The following XYZ coordinates are in angstroms. The atomic dipoles and quadrupoles are in atomic units.
atom number, atomic symbol, x, y, z, net_charge, dipole_x, dipole_y, dipole_z, dipole_mag, Qxy, Qxz, Qyz,Q(x^2-y^2), Q(3z^2 - R^2), three eigenvalues of traceless quadrupole moment tensor
    1 N     -0.032210    -0.038430     0.087210    -0.224062    -0.000618     0.000063     0.001079     0.001245    -0.000112     0.002284    -0.042958     0.009857    -0.392377    -0.137942     0.068296     0.069646
    2 C     -1.442030    -0.134110     0.093010     0.201277     0.055934     0.004619     0.000666     0.056129     0.005409    -0.000654    -0.008686     0.078661    -0.168386    -0.057927    -0.009694     0.067621
    3 C     -2.204420     0.538120    -0.863830    -0.180897    -0.030859     0.010826     0.003002     0.032840     0.016045    -0.023014    -0.042706     0.015637     0.060802    -0.046912    -0.014141     0.061053
    4 C     -3.586740     0.450870    -0.847540    -0.124024     0.028765    -0.001858     0.006293     0.029504    -0.012192     0.026092    -0.045299     0.015027     0.033221    -0.050177    -0.010130     0.060306
    5 C     -4.255690    -0.323290     0.103480     0.046992    -0.006210    -0.000907     0.000140     0.006278     0.006242     0.000757    -0.003243     0.092516    -0.021783    -0.044033    -0.006629     0.050662
    6 C     -3.482260    -0.999920     1.049430    -0.123860     0.029263     0.005165    -0.007021     0.030534     0.013067    -0.018577    -0.048580     0.008079     0.034106    -0.050342    -0.009295     0.059636
    7 C     -2.100440    -0.901230     1.055500    -0.184578    -0.029856    -0.013900    -0.001816     0.032983    -0.014229     0.028663    -0.037861     0.023344     0.063491    -0.045555    -0.015350     0.060905
    8 H     -1.706370     1.142610    -1.612760     0.116476     0.019420     0.029167    -0.038790     0.052273    -0.001747    -0.004077    -0.023498     0.008332     0.023553    -0.025577     0.000531     0.025045
    9 H     -4.158800     1.002450    -1.585800     0.101466    -0.023750     0.030131    -0.036168     0.052727    -0.002670     0.002724    -0.022389     0.009872     0.009441    -0.024673     0.002535     0.022138
   10 H     -3.969760    -1.622980     1.791500     0.101974    -0.019444    -0.032809     0.036197     0.052581     0.003602     0.000510    -0.022642     0.007121     0.009704    -0.024450     0.002071     0.022379
   11 H     -1.520870    -1.433170     1.800820     0.117192     0.022677    -0.026478     0.038642     0.052043     0.003117     0.007074    -0.022260     0.008033     0.023789    -0.025490     0.001060     0.024430
   12 C      0.589980     1.204810    -0.177220     0.210755    -0.027856    -0.046242     0.013443     0.055632     0.031855    -0.007305    -0.021142    -0.042444    -0.155719    -0.056514    -0.011614     0.068128
   13 C      1.716150     1.271630    -0.998740    -0.205608     0.019686     0.019821     0.001920     0.028002    -0.020240    -0.030842     0.033059    -0.057282    -0.041065    -0.050685    -0.014308     0.064994
   14 C      2.318200     2.497260    -1.238400    -0.066993    -0.023732    -0.005995     0.018189     0.030496     0.007858    -0.057117     0.002771     0.023254    -0.043207    -0.059680    -0.003007     0.062687
   15 C      1.800420     3.662320    -0.686850    -0.190910     0.008147    -0.021128    -0.012770     0.025998     0.023959    -0.039214    -0.002761    -0.072448    -0.150593    -0.076501     0.005607     0.070894
   16 C      0.669630     3.612510     0.126760     0.181542    -0.030021     0.042513     0.023456     0.057086    -0.027274    -0.026835     0.035214    -0.063349    -0.072625    -0.051221    -0.021928     0.073149
   17 C      0.082510     2.377090     0.383540    -0.262316    -0.012650     0.003900    -0.006489     0.014742    -0.001565    -0.052316     0.006258     0.025908    -0.006461    -0.048544    -0.011222     0.059766
   18 H      2.115460     0.364300    -1.435960     0.118009     0.021195    -0.039215    -0.023999     0.050626    -0.003839    -0.018958     0.014998    -0.004729    -0.025993    -0.026271     0.000930     0.025341
   19 H      3.196270     2.544420    -1.872910     0.098694     0.042234     0.001331    -0.030702     0.052231     0.002609    -0.020445     0.003651    -0.007360    -0.034055    -0.026826     0.009825     0.017001
   20 H      2.277390     4.615960    -0.887300     0.100993     0.022408     0.039821    -0.010648     0.046917     0.007663    -0.019045     0.000004    -0.011617    -0.043160    -0.027656     0.007381     0.020275
   21 H     -0.788800     2.318030     1.027410     0.117184    -0.036477    -0.000759     0.028373     0.046219    -0.003750    -0.023128    -0.000743     0.001736    -0.006111    -0.023768     0.000246     0.023522
   22 C      0.756480    -1.183070     0.345210     0.204936    -0.029277     0.044576    -0.009803     0.054225    -0.039700     0.008384    -0.023130    -0.025668    -0.162914    -0.059863    -0.013252     0.073115
   23 C      1.901320    -1.088750     1.139520    -0.193818     0.021545    -0.020299    -0.003961     0.029865     0.014317     0.024850     0.037513    -0.071364    -0.048211    -0.050769    -0.017651     0.068419
   24 C      2.677730    -2.212560     1.382120    -0.074712    -0.029263     0.005666    -0.019100     0.035401     0.001003     0.060555     0.012511     0.035426    -0.051759    -0.063102    -0.007287     0.070389
   25 C      2.317300    -3.447770     0.856570    -0.125871    -0.016577     0.025152    -0.005641     0.030647    -0.046822     0.039470    -0.002723    -0.047893    -0.148257    -0.076298    -0.005912     0.082210
   26 C      1.172900    -3.545160     0.073820    -0.073196     0.001990     0.034423     0.009559     0.035781     0.011998     0.032381     0.035382    -0.066166    -0.090889    -0.062629    -0.006340     0.068969
   27 C      0.401430    -2.422950    -0.190810    -0.195977     0.010281    -0.022966     0.013581     0.028593    -0.000023     0.055056     0.012907     0.044799    -0.004039    -0.050458    -0.018118     0.068575
   28 H      2.179470    -0.129100     1.559100     0.117552     0.015707     0.042855     0.022895     0.051064     0.004121     0.016536     0.017388    -0.006218    -0.028441    -0.026133     0.000286     0.025847
   29 H      3.564780    -2.122500     1.999140     0.099274     0.042304     0.005044     0.029503     0.051822    -0.002898     0.019908     0.006504    -0.005252    -0.036947    -0.027270     0.009849     0.017421
   30 H      2.921800    -4.324970     1.054760     0.099155     0.028585    -0.041508     0.009414     0.051270    -0.008443     0.018541     0.004786    -0.013729    -0.048856    -0.029760     0.009907     0.019854
   31 H      0.882730    -4.500960    -0.348010     0.099248    -0.014704    -0.045171    -0.020397     0.051698    -0.001965     0.017815     0.008591    -0.014597    -0.040510    -0.027677     0.009960     0.017717
   32 H     -0.484250    -2.500420    -0.810470     0.117623    -0.039621    -0.008317    -0.030562     0.050725     0.006293     0.023252     0.007058    -0.003799    -0.014102    -0.025641     0.000060     0.025581
   33 N     -9.956571    -0.722070     0.114580    -0.224058    -0.000349    -0.000957     0.001069     0.001477     0.008259    -0.007849     0.104028     0.109649    -0.084306    -0.137203     0.068447     0.068756
   34 C     -8.547201    -0.620200     0.113460     0.202925    -0.056003    -0.005448     0.001328     0.056283     0.006606    -0.001477     0.023006     0.101772    -0.105446    -0.057651    -0.011080     0.068731
   35 C     -7.835741    -0.623430    -1.087640    -0.183726     0.032707    -0.009319    -0.002080     0.034072     0.001747     0.029937    -0.002821     0.044193     0.130692    -0.045421    -0.014060     0.059481
   36 C     -6.453270    -0.538250    -1.084700    -0.127333    -0.029425    -0.002141     0.009945     0.031134     0.005919    -0.025862     0.005221     0.042247     0.138843    -0.047418    -0.010787     0.058204
   37 C     -5.734060    -0.424320     0.107380     0.046202     0.005430     0.000103     0.000305     0.005439     0.006932     0.000747    -0.015851     0.085395    -0.045786    -0.044994    -0.006247     0.051241
   38 C     -6.456980    -0.409960     1.302420    -0.124935    -0.031073    -0.001233    -0.009951     0.032650     0.000311     0.025627     0.008503     0.045997     0.141193    -0.048779    -0.010687     0.059466
   39 C     -7.838201    -0.517180     1.311440    -0.188311     0.031918     0.013501     0.002927     0.034779     0.004005    -0.028441    -0.007495     0.041232     0.131777    -0.044522    -0.014409     0.058931
   40 H     -8.373471    -0.709250    -2.024570     0.119430    -0.020700    -0.002695    -0.046356     0.050839    -0.003549     0.003167     0.001122     0.025624     0.072309    -0.025476     0.000806     0.024669
   41 H     -5.920770    -0.569110    -2.029160     0.104228     0.021223    -0.004048    -0.046382     0.051167     0.000101    -0.002912     0.003828     0.026832     0.063328    -0.024382     0.002369     0.022013
   42 H     -5.929910    -0.305570     2.244650     0.103939     0.020879     0.006865     0.046244     0.051201     0.003602     0.002393     0.004173     0.025652     0.064308    -0.024443     0.002113     0.022330
   43 H     -8.378131    -0.506930     2.251000     0.119915    -0.020259    -0.000557     0.046078     0.050338     0.007105    -0.002895     0.000373     0.022132     0.072758    -0.025386     0.000668     0.024717
   44 C    -10.599631    -1.614880    -0.775630     0.209558     0.029002     0.030776     0.036390     0.055790     0.024216     0.021636     0.053929     0.009266    -0.003398    -0.056872    -0.011017     0.067889
   45 C    -11.762991    -1.230990    -1.444420    -0.203605    -0.019047    -0.018048    -0.008564     0.027602    -0.034330     0.015240     0.012354    -0.069322    -0.090057    -0.052045    -0.012652     0.064697
   46 C    -12.384491    -2.122040    -2.305460    -0.066860     0.025768    -0.006067     0.016224     0.031049    -0.025343     0.047841     0.006071     0.031000    -0.052654    -0.058016    -0.003221     0.061237
   47 C    -11.850421    -3.385520    -2.526080    -0.191761    -0.008151     0.023002     0.001891     0.024476    -0.000670     0.044706     0.054746    -0.027994    -0.045676    -0.076721     0.005424     0.071296
   48 C    -10.683311    -3.778880    -1.873630     0.179549     0.030636    -0.047613    -0.005746     0.056909    -0.038642     0.004072     0.019389    -0.070321    -0.112571    -0.049981    -0.023812     0.073793
   49 C    -10.075771    -2.889380    -0.992080    -0.262809     0.009659    -0.000301    -0.009634     0.013645    -0.030344     0.040945    -0.003247     0.021184    -0.045363    -0.049271    -0.009272     0.058542
   50 H    -12.174961    -0.242640    -1.279240     0.117791    -0.022490     0.045658     0.003252     0.051000    -0.013762     0.012725     0.002561    -0.011511    -0.056630    -0.026369     0.001254     0.025115
   51 H    -13.291021    -1.822150    -2.819350     0.098845    -0.043913     0.015047    -0.024587     0.052529    -0.008992     0.017497     0.008930    -0.002503    -0.029343    -0.026655     0.009944     0.016710
   52 H    -12.343041    -4.071120    -3.207510     0.100970    -0.023402    -0.027211    -0.030120     0.046854    -0.003741     0.019347     0.013520    -0.000948    -0.022328    -0.027689     0.007310     0.020379
   53 H     -9.175221    -3.184790    -0.463840     0.119022     0.037012    -0.014417     0.022339     0.045572    -0.015848     0.016339     0.002304     0.005778    -0.007123    -0.023369     0.000193     0.023176
   54 C    -10.723571     0.058510     1.009500     0.201970     0.028995    -0.028937    -0.034887     0.053807    -0.024780    -0.029665     0.052352     0.023191    -0.000091    -0.058683    -0.012864     0.071547
   55 C    -11.831411    -0.492090     1.657610    -0.190904    -0.021083     0.020521     0.009639     0.030960     0.022426    -0.015624     0.013192    -0.088153    -0.093603    -0.052374    -0.014168     0.066542
   56 C    -12.587561     0.280560     2.527020    -0.077413     0.026604     0.005661    -0.018755     0.033039     0.035599    -0.051554    -0.004154     0.022142    -0.063980    -0.062288    -0.009197     0.071485
   57 C    -12.242581     1.602930     2.780110    -0.122240     0.016258    -0.017108    -0.019962     0.030911    -0.012753    -0.059982     0.045896    -0.019017    -0.033636    -0.076837    -0.003650     0.080486
   58 C    -11.134501     2.149480     2.143500    -0.073901    -0.000327    -0.031107    -0.011034     0.033008     0.028551    -0.020552     0.022993    -0.082652    -0.114684    -0.063962    -0.008474     0.072436
   59 C    -10.384291     1.390570     1.257000    -0.192985    -0.008931     0.012087     0.024234     0.028515     0.030935    -0.047927    -0.015979     0.019792    -0.049273    -0.051858    -0.017461     0.069319
   60 H    -12.097281    -1.525810     1.470400     0.117804    -0.015622    -0.048416    -0.004749     0.051095     0.012169    -0.012212     0.001012    -0.018661    -0.056987    -0.025959     0.000484     0.025475
   61 H    -13.446051    -0.161110     3.020580     0.098515    -0.041296    -0.022175     0.023266     0.052330     0.009047    -0.018990     0.006736    -0.006385    -0.030205    -0.027395     0.009741     0.017654
   62 H    -12.830971     2.201140     3.465770     0.098650    -0.027953     0.028333     0.032568     0.051428     0.004161    -0.021083     0.012417    -0.010170    -0.027023    -0.030196     0.010211     0.019985
   63 H    -10.856871     3.181560     2.326320     0.097243     0.014290     0.050365     0.008461     0.053032     0.008676    -0.016171     0.009145    -0.015552    -0.034230    -0.027496     0.009755     0.017741
   64 H     -9.527491     1.823440     0.754080     0.116399     0.038616     0.025363    -0.022102     0.051215     0.018109    -0.016048     0.000677    -0.010666    -0.021215    -0.025799     0.000317     0.025482
   65 C      0.079760     4.869590     0.711530    -0.395418     0.025516    -0.059008    -0.025815     0.069278     0.007319    -0.011838     0.001820    -0.009426    -0.024677    -0.017983     0.003915     0.014068
   66 H      0.838770     5.645470     0.831450     0.122297     0.023491     0.014494     0.000614     0.027609     0.007492    -0.001258     0.006651    -0.000057    -0.029407    -0.013371     0.000111     0.013260
   67 H     -0.702630     5.268420     0.058130     0.124917    -0.019256     0.004739    -0.020731     0.028688    -0.006502     0.010474    -0.000783     0.004535     0.004111    -0.011339    -0.002463     0.013802
   68 H     -0.371860     4.679830     1.687660     0.124923    -0.010005    -0.012150     0.024654     0.029250    -0.000013    -0.009131    -0.003079    -0.009840     0.024368    -0.013136     0.000216     0.012920
   69 C    -10.075921    -5.135520    -2.120150    -0.391593    -0.026513     0.062978     0.010256     0.069097    -0.000750     0.013005     0.007353    -0.005412    -0.016571    -0.017579     0.004296     0.013283
   70 H    -10.827261    -5.850850    -2.460840     0.121113    -0.023865    -0.013015    -0.007378     0.028167     0.005100     0.005237     0.004906    -0.001567    -0.033590    -0.013435     0.000392     0.013043
   71 H     -9.299761    -5.076400    -2.889670     0.123368     0.019672     0.008014    -0.020320     0.029396     0.001059    -0.012383    -0.002015     0.003505     0.003155    -0.011380    -0.002601     0.013981
   72 H     -9.611661    -5.533050    -1.214910     0.124753     0.010262    -0.003450     0.027066     0.029151    -0.005338     0.007808    -0.002648    -0.009069     0.025326    -0.013142    -0.000080     0.013222
 
The sperically averaged electron density of each atom fit to a function of the form exp(a - br) for r >=rmin_cloud_penetration
atom number,atomic symbol, x, y, z, a, b, Rsquared where a and b are in atomic units and Rsquared is the squared correlation coefficient
    1 N     -0.032210    -0.038430     0.087210     0.009512     1.979314     0.999727
    2 C     -1.442030    -0.134110     0.093010     1.456889     2.282885     0.998410
    3 C     -2.204420     0.538120    -0.863830     0.681507     2.117841     0.999589
    4 C     -3.586740     0.450870    -0.847540     1.275048     2.254346     0.999734
    5 C     -4.255690    -0.323290     0.103480     1.362939     2.261312     0.998021
    6 C     -3.482260    -0.999920     1.049430     1.496414     2.295996     0.999928
    7 C     -2.100440    -0.901230     1.055500     0.844059     2.147712     0.999847
    8 H     -1.706370     1.142610    -1.612760    -1.504765     2.177483     0.999715
    9 H     -4.158800     1.002450    -1.585800    -0.693847     2.375608     0.997842
   10 H     -3.969760    -1.622980     1.791500    -0.506630     2.412192     0.998393
   11 H     -1.520870    -1.433170     1.800820    -1.181661     2.240018     0.999913
   12 C      0.589980     1.204810    -0.177220     1.360173     2.259189     0.999218
   13 C      1.716150     1.271630    -0.998740     1.447710     2.255048     0.999488
   14 C      2.318200     2.497260    -1.238400     2.107459     2.462145     0.998363
   15 C      1.800420     3.662320    -0.686850     2.437959     2.482728     0.999243
   16 C      0.669630     3.612510     0.126760     1.027274     2.234433     0.997955
   17 C      0.082510     2.377090     0.383540     0.940495     2.124091     0.997306
   18 H      2.115460     0.364300    -1.435960    -0.855431     2.286878     0.999016
   19 H      3.196270     2.544420    -1.872910     0.160667     2.590475     0.999122
   20 H      2.277390     4.615960    -0.887300     0.665815     2.633958     0.998470
   21 H     -0.788800     2.318030     1.027410    -1.089418     2.198255     0.999089
   22 C      0.756480    -1.183070     0.345210     1.756405     2.332646     0.997207
   23 C      1.901320    -1.088750     1.139520     1.503560     2.263347     0.998584
   24 C      2.677730    -2.212560     1.382120     2.480636     2.530625     0.999715
   25 C      2.317300    -3.447770     0.856570     3.354737     2.690240     0.998491
   26 C      1.172900    -3.545160     0.073820     2.511085     2.538210     0.999728
   27 C      0.401430    -2.422950    -0.190810     1.460287     2.254606     0.998840
   28 H      2.179470    -0.129100     1.559100    -1.000812     2.260753     0.999761
   29 H      3.564780    -2.122500     1.999140     0.195020     2.609433     0.998194
   30 H      2.921800    -4.324970     1.054760     1.278396     2.788527     0.997505
   31 H      0.882730    -4.500960    -0.348010     0.239220     2.617026     0.998304
   32 H     -0.484250    -2.500420    -0.810470    -0.972264     2.269419     0.999721
   33 N     -9.956571    -0.722070     0.114580     0.135964     2.006049     0.999648
   34 C     -8.547201    -0.620200     0.113460     1.607062     2.311812     0.998272
   35 C     -7.835741    -0.623430    -1.087640     0.651395     2.112197     0.999546
   36 C     -6.453270    -0.538250    -1.084700     1.279457     2.253762     0.999757
   37 C     -5.734060    -0.424320     0.107380     1.447723     2.278652     0.998014
   38 C     -6.456980    -0.409960     1.302420     1.476137     2.293028     0.999921
   39 C     -7.838201    -0.517180     1.311440     0.837602     2.146051     0.999858
   40 H     -8.373471    -0.709250    -2.024570    -1.503369     2.175947     0.999705
   41 H     -5.920770    -0.569110    -2.029160    -0.730933     2.372018     0.997315
   42 H     -5.929910    -0.305570     2.244650    -0.538601     2.409981     0.997793
   43 H     -8.378131    -0.506930     2.251000    -1.157702     2.241643     0.999919
   44 C    -10.599631    -1.614880    -0.775630     1.220835     2.231322     0.999401
   45 C    -11.762991    -1.230990    -1.444420     1.435457     2.253075     0.999532
   46 C    -12.384491    -2.122040    -2.305460     2.086899     2.458160     0.998282
   47 C    -11.850421    -3.385520    -2.526080     2.427430     2.480037     0.999246
   48 C    -10.683311    -3.778880    -1.873630     1.073092     2.244583     0.997944
   49 C    -10.075771    -2.889380    -0.992080     0.854773     2.107031     0.997781
   50 H    -12.174961    -0.242640    -1.279240    -0.853661     2.287621     0.999020
   51 H    -13.291021    -1.822150    -2.819350     0.162426     2.591656     0.999116
   52 H    -12.343041    -4.071120    -3.207510     0.662441     2.633849     0.998504
   53 H     -9.175221    -3.184790    -0.463840    -1.049094     2.202806     0.998923
   54 C    -10.723571     0.058510     1.009500     1.724723     2.326479     0.997403
   55 C    -11.831411    -0.492090     1.657610     1.517987     2.266241     0.998519
   56 C    -12.587561     0.280560     2.527020     2.456005     2.524851     0.999633
   57 C    -12.242581     1.602930     2.780110     2.956452     2.603061     0.999129
   58 C    -11.134501     2.149480     2.143500     2.683954     2.570273     0.999722
   59 C    -10.384291     1.390570     1.257000     1.540805     2.271480     0.998541
   60 H    -12.097281    -1.525810     1.470400    -0.984629     2.264190     0.999736
   61 H    -13.446051    -0.161110     3.020580     0.166984     2.590321     0.999316
   62 H    -12.830971     2.201140     3.465770     1.328958     2.801523     0.997602
   63 H    -10.856871     3.181560     2.326320     0.211166     2.597243     0.999354
   64 H     -9.527491     1.823440     0.754080    -0.948171     2.273901     0.999704
   65 C      0.079760     4.869590     0.711530     1.912714     2.395912     0.999822
   66 H      0.838770     5.645470     0.831450     1.058838     2.755352     0.998503
   67 H     -0.702630     5.268420     0.058130    -0.106817     2.543134     0.999613
   68 H     -0.371860     4.679830     1.687660    -0.104150     2.554014     0.997977
   69 C    -10.075921    -5.135520    -2.120150     1.907180     2.396101     0.999829
   70 H    -10.827261    -5.850850    -2.460840     1.076424     2.758312     0.998481
   71 H     -9.299761    -5.076400    -2.889670    -0.120750     2.539716     0.999626
   72 H     -9.611661    -5.533050    -1.214910    -0.089915     2.556292     0.997967
 
  
 Since the system is non-periodic, the total dipole and quadrupole moments were computed relative to the system center of mass.
 Multipole moments (in atomic units) using the net atomic charges:
 Partial_charge_dipole_x =    0.0038   Partial_charge_dipole_y =   -0.0077   Partial_charge_dipole_z =    0.0011     Partial_charge_dipole_magnitude =    0.0087
 Partial_charge_quadrupole_xy =    3.0003   Partial_charge_quadrupole_xz =    0.7738   Partial_charge_quadrupole_yz =    3.0756   Partial_charge_quadrupole_x2minusy2 =   -5.2609   Partial_charge_quadrupole_3z2minusr2 =  -13.5035
 Eigenvalues of traceless quadrupole moment tensor =   -5.4228  -1.6612   7.0840
 Multipole moments (in atomic units) using the net atomic charges and atomic dipoles:
 Dipole_x =    0.0013   Dipole_y =    0.0019   Dipole_z =   -0.0208   Dipole_magnitude =    0.0210
 Quadrupole_xy =    2.8540   Quadrupole_xz =    0.7319   Quadrupole_yz =    2.4557   Quadrupole_x2minusy2 =   -2.6289   Quadrupole_3z2minusr2 =  -12.2861
 Eigenvalues of traceless quadrupole moment tensor =   -4.8344  -0.9725   5.8069
 Multipole moments (in atomic units) using the net atomic charges, atomic dipoles, and atomic quadrupoles:
 Dipole_x =    0.0013   Dipole_y =    0.0019   Dipole_z =   -0.0208   Dipole_magnitude =    0.0210
 Full_quadrupole_xy =    2.8598   Full_quadrupole_xz =    0.7002   Full_quadrupole_yz =    2.7748   Full_quadrupole_x2minusy2 =   -2.4933   Full_quadrupole_3z2minusr2 =  -14.3221
 Eigenvalues of traceless quadrupole moment tensor =   -5.6112  -0.5712   6.1823
  
 2021/05/20  08:46:22
