   72
Nonperiodic system
N      -0.032210    -0.038430     0.087210    76.811533
C      -1.442030    -0.134110     0.093010    76.245792
C      -2.204420     0.538120    -0.863830    88.087007
C      -3.586740     0.450870    -0.847540    86.033479
C      -4.255690    -0.323290     0.103480    81.013394
C      -3.482260    -0.999920     1.049430    86.088873
C      -2.100440    -0.901230     1.055500    88.382554
H      -1.706370     1.142610    -1.612760     9.313768
H      -4.158800     1.002450    -1.585800     9.242513
H      -3.969760    -1.622980     1.791500     9.228181
H      -1.520870    -1.433170     1.800820     9.315914
C       0.589980     1.204810    -0.177220    76.935057
C       1.716150     1.271630    -0.998740    89.919348
C       2.318200     2.497260    -1.238400    83.224537
C       1.800420     3.662320    -0.686850    87.521246
C       0.669630     3.612510     0.126760    74.749987
C       0.082510     2.377090     0.383540    93.105621
H       2.115460     0.364300    -1.435960     9.499777
H       3.196270     2.544420    -1.872910     8.381235
H       2.277390     4.615960    -0.887300     9.238197
H      -0.788800     2.318030     1.027410    10.280385
C       0.756480    -1.183070     0.345210    76.463493
C       1.901320    -1.088750     1.139520    89.222161
C       2.677730    -2.212560     1.382120    82.738617
C       2.317300    -3.447770     0.856570    85.394534
C       1.172900    -3.545160     0.073820    82.497843
C       0.401430    -2.422950    -0.190810    89.440743
H       2.179470    -0.129100     1.559100     9.520879
H       3.564780    -2.122500     1.999140     8.428963
H       2.921800    -4.324970     1.054760     8.736827
H       0.882730    -4.500960    -0.348010     8.456900
H      -0.484250    -2.500420    -0.810470     9.477789
N      -9.956571    -0.722070     0.114580    76.656444
C      -8.547201    -0.620200     0.113460    76.235772
C      -7.835741    -0.623430    -1.087640    88.237352
C      -6.453270    -0.538250    -1.084700    86.289079
C      -5.734060    -0.424320     0.107380    81.121735
C      -6.456980    -0.409960     1.302420    85.956816
C      -7.838201    -0.517180     1.311440    88.595855
H      -8.373471    -0.709250    -2.024570     9.312302
H      -5.920770    -0.569110    -2.029160     9.207565
H      -5.929910    -0.305570     2.244650     9.219321
H      -8.378131    -0.506930     2.251000     9.344193
C     -10.599631    -1.614880    -0.775630    77.081604
C     -11.762991    -1.230990    -1.444420    89.835532
C     -12.384491    -2.122040    -2.305460    83.214918
C     -11.850421    -3.385520    -2.526080    87.630078
C     -10.683311    -3.778880    -1.873630    74.705171
C     -10.075771    -2.889380    -0.992080    93.324550
H     -12.174961    -0.242640    -1.279240     9.496894
H     -13.291021    -1.822150    -2.819350     8.378087
H     -12.343041    -4.071120    -3.207510     9.239501
H      -9.175221    -3.184790    -0.463840    10.302382
C     -10.723571     0.058510     1.009500    76.557171
C     -11.831411    -0.492090     1.657610    89.140301
C     -12.587561     0.280560     2.527020    82.898651
C     -12.242581     1.602930     2.780110    85.252583
C     -11.134501     2.149480     2.143500    82.668067
C     -10.384291     1.390570     1.257000    89.129159
H     -12.097281    -1.525810     1.470400     9.512782
H     -13.446051    -0.161110     3.020580     8.434485
H     -12.830971     2.201140     3.465770     8.738027
H     -10.856871     3.181560     2.326320     8.461180
H      -9.527491     1.823440     0.754080     9.494727
C       0.079760     4.869590     0.711530    87.739568
H       0.838770     5.645470     0.831450     8.920572
H      -0.702630     5.268420     0.058130     8.588139
H      -0.371860     4.679830     1.687660     8.627214
C     -10.075921    -5.135520    -2.120150    87.485426
H     -10.827261    -5.850850    -2.460840     8.940900
H      -9.299761    -5.076400    -2.889670     8.609816
H      -9.611661    -5.533050    -1.214910     8.643636
  
Same information as above printed with atom number.
   1 N     -0.032210    -0.038430     0.087210    76.811533
   2 C     -1.442030    -0.134110     0.093010    76.245792
   3 C     -2.204420     0.538120    -0.863830    88.087007
   4 C     -3.586740     0.450870    -0.847540    86.033479
   5 C     -4.255690    -0.323290     0.103480    81.013394
   6 C     -3.482260    -0.999920     1.049430    86.088873
   7 C     -2.100440    -0.901230     1.055500    88.382554
   8 H     -1.706370     1.142610    -1.612760     9.313768
   9 H     -4.158800     1.002450    -1.585800     9.242513
  10 H     -3.969760    -1.622980     1.791500     9.228181
  11 H     -1.520870    -1.433170     1.800820     9.315914
  12 C      0.589980     1.204810    -0.177220    76.935057
  13 C      1.716150     1.271630    -0.998740    89.919348
  14 C      2.318200     2.497260    -1.238400    83.224537
  15 C      1.800420     3.662320    -0.686850    87.521246
  16 C      0.669630     3.612510     0.126760    74.749987
  17 C      0.082510     2.377090     0.383540    93.105621
  18 H      2.115460     0.364300    -1.435960     9.499777
  19 H      3.196270     2.544420    -1.872910     8.381235
  20 H      2.277390     4.615960    -0.887300     9.238197
  21 H     -0.788800     2.318030     1.027410    10.280385
  22 C      0.756480    -1.183070     0.345210    76.463493
  23 C      1.901320    -1.088750     1.139520    89.222161
  24 C      2.677730    -2.212560     1.382120    82.738617
  25 C      2.317300    -3.447770     0.856570    85.394534
  26 C      1.172900    -3.545160     0.073820    82.497843
  27 C      0.401430    -2.422950    -0.190810    89.440743
  28 H      2.179470    -0.129100     1.559100     9.520879
  29 H      3.564780    -2.122500     1.999140     8.428963
  30 H      2.921800    -4.324970     1.054760     8.736827
  31 H      0.882730    -4.500960    -0.348010     8.456900
  32 H     -0.484250    -2.500420    -0.810470     9.477789
  33 N     -9.956571    -0.722070     0.114580    76.656444
  34 C     -8.547201    -0.620200     0.113460    76.235772
  35 C     -7.835741    -0.623430    -1.087640    88.237352
  36 C     -6.453270    -0.538250    -1.084700    86.289079
  37 C     -5.734060    -0.424320     0.107380    81.121735
  38 C     -6.456980    -0.409960     1.302420    85.956816
  39 C     -7.838201    -0.517180     1.311440    88.595855
  40 H     -8.373471    -0.709250    -2.024570     9.312302
  41 H     -5.920770    -0.569110    -2.029160     9.207565
  42 H     -5.929910    -0.305570     2.244650     9.219321
  43 H     -8.378131    -0.506930     2.251000     9.344193
  44 C    -10.599631    -1.614880    -0.775630    77.081604
  45 C    -11.762991    -1.230990    -1.444420    89.835532
  46 C    -12.384491    -2.122040    -2.305460    83.214918
  47 C    -11.850421    -3.385520    -2.526080    87.630078
  48 C    -10.683311    -3.778880    -1.873630    74.705171
  49 C    -10.075771    -2.889380    -0.992080    93.324550
  50 H    -12.174961    -0.242640    -1.279240     9.496894
  51 H    -13.291021    -1.822150    -2.819350     8.378087
  52 H    -12.343041    -4.071120    -3.207510     9.239501
  53 H     -9.175221    -3.184790    -0.463840    10.302382
  54 C    -10.723571     0.058510     1.009500    76.557171
  55 C    -11.831411    -0.492090     1.657610    89.140301
  56 C    -12.587561     0.280560     2.527020    82.898651
  57 C    -12.242581     1.602930     2.780110    85.252583
  58 C    -11.134501     2.149480     2.143500    82.668067
  59 C    -10.384291     1.390570     1.257000    89.129159
  60 H    -12.097281    -1.525810     1.470400     9.512782
  61 H    -13.446051    -0.161110     3.020580     8.434485
  62 H    -12.830971     2.201140     3.465770     8.738027
  63 H    -10.856871     3.181560     2.326320     8.461180
  64 H     -9.527491     1.823440     0.754080     9.494727
  65 C      0.079760     4.869590     0.711530    87.739568
  66 H      0.838770     5.645470     0.831450     8.920572
  67 H     -0.702630     5.268420     0.058130     8.588139
  68 H     -0.371860     4.679830     1.687660     8.627214
  69 C    -10.075921    -5.135520    -2.120150    87.485426
  70 H    -10.827261    -5.850850    -2.460840     8.940900
  71 H     -9.299761    -5.076400    -2.889670     8.609816
  72 H     -9.611661    -5.533050    -1.214910     8.643636
