   56
Nonperiodic system
C     -4.067698    -1.627780    -0.056377    -0.089570
C     -2.715833    -1.621021    -0.196003    -0.135981
C     -1.967081    -0.405617    -0.087588     0.026820
C     -0.572883    -0.384487    -0.238077    -0.026935
C      0.132877     0.820552    -0.108983     0.022464
C      1.557539     0.874202    -0.239478    -0.132640
C      2.229816     2.049375    -0.120604    -0.091002
C      1.526483     3.258443     0.135176    -0.091225
C      0.174612     3.251682     0.274785    -0.134689
C     -0.574130     2.036276     0.166418     0.027243
C     -1.968356     2.015184     0.316731    -0.027044
C     -2.674088     0.810092     0.187905     0.026317
C     -4.098735     0.756403     0.318608    -0.134400
C     -4.771020    -0.418751     0.199619    -0.091372
H     -4.616940    -2.558569    -0.141093     0.099227
H     -2.182355    -2.542801    -0.393285     0.105334
H      2.095177    -0.045175    -0.436672     0.104511
H      3.308966     2.069380    -0.221890     0.099864
H      2.075722     4.189238     0.219817     0.100234
H     -0.358870     4.173439     0.472169     0.104600
H     -4.636319     1.675714     0.516239     0.104622
H     -5.850154    -0.438801     0.301053     0.100235
C     -2.704002     3.280192     0.609504     0.033689
C     -2.915412     3.666973     1.908663    -0.144774
C     -3.608095     4.858695     2.212543    -0.086140
C     -4.083534     5.653452     1.207812    -0.152755
C     -3.888334     5.293325    -0.149167     0.074924
C     -4.371720     6.100543    -1.210236    -0.145824
C     -4.174144     5.737263    -2.513369    -0.094166
C     -3.481274     4.545254    -2.819955    -0.090658
C     -3.002445     3.744733    -1.819699    -0.127962
C     -3.191213     4.093929    -0.457290     0.021687
H     -2.541518     3.042188     2.712400     0.111352
H     -3.759432     5.137581     3.249077     0.101008
H     -4.616891     6.570842     1.434381     0.106524
H     -4.903286     7.015096    -0.968060     0.104134
H     -4.548372     6.362475    -3.316059     0.101202
H     -3.329389     4.265384    -3.856158     0.100255
H     -2.471048     2.830563    -2.057078     0.103677
C      0.162768    -1.649452    -0.531014     0.033692
C      0.374531    -2.036024    -1.830093    -0.142999
C      1.067234    -3.227800    -2.134031    -0.088745
C      1.542314    -4.022754    -1.129366    -0.150625
C      1.346778    -3.662831     0.227691     0.072229
C      1.829859    -4.470299     1.288664    -0.143274
C      1.632041    -4.107229     2.591853    -0.093521
C      0.939241    -2.915236     2.898466    -0.090038
C      0.460674    -2.114476     1.898222    -0.131341
C      0.649693    -2.463453     0.535863     0.023790
H      0.000923    -1.411100    -2.633861     0.110757
H      1.218788    -3.506421    -3.170605     0.102203
H      2.075656    -4.940157    -1.355895     0.105851
H      2.361380    -5.384849     1.046385     0.103272
H      2.006016    -4.732597     3.394536     0.099954
H      0.787162    -2.635473     3.934670     0.100243
H     -0.070686    -1.200315     2.135740     0.105768
 
 Chargemol version 3.5 September 26, 2017.
See ddec.sourceforge.net for latest version.
 
Computational parameters:
Number of radial integration shells =    100
Cutoff radius (pm) =    500
Error in the integrated total number of electrons before renormalization (e) =    2.5992E-09
Charge convergence tolerance =    1.0000E-05
Minimum radius for electron cloud penetration fitting (pm) =    200
Minimum decay exponent for electron density of buried atom tails =   1.7500
Maximum decay exponent for electron density of buried atom tails =  2.5000
Number of iterations to convergence =      7
 
The following XYZ coordinates are in angstroms. The atomic dipoles and quadrupoles are in atomic units.
atom number, atomic symbol, x, y, z, net_charge, dipole_x, dipole_y, dipole_z, dipole_mag, Qxy, Qxz, Qyz,Q(x^2-y^2), Q(3z^2 - R^2), three eigenvalues of traceless quadrupole moment tensor
    1 C     -4.067698    -1.627780    -0.056377    -0.089570    -0.013580     0.040758     0.008485     0.043791     0.028472    -0.001491     0.013844    -0.049296    -0.165851    -0.058983    -0.008107     0.067090
    2 C     -2.715833    -1.621021    -0.196003    -0.135981     0.009507     0.036649     0.006685     0.038448    -0.023401    -0.003568     0.016202    -0.077553    -0.099452    -0.037451    -0.027790     0.065241
    3 C     -1.967081    -0.405617    -0.087588     0.026820    -0.035118    -0.013483     0.003476     0.037778     0.005215    -0.004093     0.004950     0.033863    -0.122886    -0.043122     0.004037     0.039085
    4 C     -0.572883    -0.384487    -0.238077    -0.026935     0.024264    -0.038928    -0.005156     0.046159    -0.024082    -0.002335     0.003479    -0.028943    -0.013720    -0.024987    -0.006145     0.031132
    5 C      0.132877     0.820552    -0.108983     0.022464     0.028771     0.024039     0.003309     0.037638     0.017227    -0.003712     0.005026    -0.006998    -0.116124    -0.040969     0.003257     0.037712
    6 C      1.557539     0.874202    -0.239478    -0.132640    -0.037085     0.009337     0.007743     0.039019    -0.044705    -0.012841     0.011171    -0.000865    -0.104827    -0.039364    -0.026266     0.065630
    7 C      2.229816     2.049375    -0.120604    -0.091002    -0.029775     0.032725     0.008515     0.045056    -0.006393    -0.013073     0.007967     0.073165    -0.162974    -0.058333    -0.008144     0.066477
    8 C      1.526483     3.258443     0.135176    -0.091225     0.012511    -0.041757    -0.008857     0.044481     0.027341    -0.001957     0.012984    -0.048774    -0.164159    -0.058258    -0.007368     0.065626
    9 C      0.174612     3.251682     0.274785    -0.134689    -0.010453    -0.035877    -0.006195     0.037879    -0.023729    -0.003401     0.016208    -0.077345    -0.101046    -0.037977    -0.027574     0.065551
   10 C     -0.574130     2.036276     0.166418     0.027243     0.035869     0.012522    -0.003846     0.038186     0.005568    -0.005307     0.005399     0.033266    -0.120489    -0.042624     0.004005     0.038619
   11 C     -1.968356     2.015184     0.316731    -0.027044    -0.023664     0.041329     0.005018     0.047888    -0.025847    -0.002974     0.004124    -0.028635    -0.015053    -0.026222    -0.006774     0.032996
   12 C     -2.674088     0.810092     0.187905     0.026317    -0.028440    -0.023876    -0.002878     0.037245     0.017157    -0.003793     0.004605    -0.006550    -0.124770    -0.043698     0.004673     0.039025
   13 C     -4.098735     0.756403     0.318608    -0.134400     0.036056    -0.009052    -0.006948     0.037819    -0.045097    -0.012630     0.011519    -0.002445    -0.101985    -0.038449    -0.027177     0.065626
   14 C     -4.771020    -0.418751     0.199619    -0.091372     0.030236    -0.031294    -0.008565     0.044349    -0.006605    -0.013637     0.008358     0.071553    -0.163645    -0.058758    -0.007225     0.065983
   15 H     -4.616940    -2.558569    -0.141093     0.099227    -0.024663    -0.045422    -0.004083     0.051846     0.002467    -0.003378     0.006723    -0.008185    -0.079836    -0.028070     0.009115     0.018956
   16 H     -2.182355    -2.542801    -0.393285     0.105334     0.019046    -0.049277    -0.008304     0.053478     0.000737     0.000059     0.007756    -0.039286    -0.067359    -0.023642    -0.008453     0.032095
   17 H      2.095177    -0.045175    -0.436672     0.104511     0.033657    -0.041067    -0.008565     0.053783    -0.016389    -0.007214     0.004132     0.021177    -0.066623    -0.023571    -0.008429     0.032000
   18 H      3.308966     2.069380    -0.221890     0.099864     0.051400    -0.000903    -0.004856     0.051637    -0.001961    -0.004846     0.005880     0.008218    -0.079266    -0.027899     0.009137     0.018762
   19 H      2.075722     4.189238     0.219817     0.100234     0.024690     0.044965     0.004434     0.051489     0.002620    -0.003339     0.006459    -0.008184    -0.079949    -0.028026     0.009049     0.018977
   20 H     -0.358870     4.173439     0.472169     0.104600    -0.019102     0.049660     0.008225     0.053839     0.000857    -0.000058     0.008068    -0.038684    -0.067839    -0.023895    -0.008073     0.031968
   21 H     -4.636319     1.675714     0.516239     0.104622    -0.033501     0.040951     0.008392     0.053570    -0.016574    -0.007352     0.004014     0.021099    -0.067400    -0.023835    -0.008437     0.032272
   22 H     -5.850154    -0.438801     0.301053     0.100235    -0.051278     0.000520     0.004610     0.051487    -0.002193    -0.004848     0.005877     0.008221    -0.079476    -0.027959     0.009038     0.018921
   23 C     -2.704002     3.280192     0.609504     0.033689     0.015052    -0.025862    -0.017256     0.034542    -0.014410    -0.010045     0.014665    -0.017086    -0.107832    -0.039337     0.000101     0.039236
   24 C     -2.915412     3.666973     1.908663    -0.144774    -0.019563     0.034145     0.012148     0.041184    -0.017476     0.014528    -0.024940    -0.018983     0.053416    -0.030200    -0.013894     0.044093
   25 C     -3.608095     4.858695     2.212543    -0.086140     0.017303    -0.030410    -0.018648     0.039647    -0.027678    -0.009022     0.016794    -0.031639     0.149646    -0.058285     0.000536     0.057749
   26 C     -4.083534     5.653452     1.207812    -0.152755     0.006185    -0.010523    -0.016719     0.020701    -0.043993    -0.009567     0.016665    -0.050743    -0.023377    -0.048291    -0.012393     0.060684
   27 C     -3.888334     5.293325    -0.149167     0.074924    -0.000554     0.001105    -0.002773     0.003036    -0.019845     0.003027    -0.003739    -0.021827     0.144284    -0.048126    -0.001165     0.049292
   28 C     -4.371720     6.100543    -1.210236    -0.145824     0.011484    -0.019565     0.008380     0.024184    -0.051394    -0.006036     0.012291    -0.059157    -0.041340    -0.053820    -0.015199     0.069020
   29 C     -4.174144     5.737263    -2.513369    -0.094166     0.019378    -0.032376     0.007568     0.038484    -0.038559     0.019543    -0.031274    -0.041977     0.081438    -0.058956    -0.007321     0.066277
   30 C     -3.481274     4.545254    -2.819955    -0.090658    -0.013660     0.023889     0.020985     0.034607    -0.025967    -0.012857     0.024425    -0.028562     0.161495    -0.058034    -0.008469     0.066503
   31 C     -3.002445     3.744733    -1.819699    -0.127962    -0.007762     0.013504     0.020254     0.025550    -0.038175    -0.016956     0.029989    -0.043013    -0.026950    -0.040812    -0.024279     0.065092
   32 C     -3.191213     4.093929    -0.457290     0.021687    -0.001507     0.000993    -0.015992     0.016094    -0.022777     0.006707    -0.009664    -0.026306     0.120477    -0.047735     0.003250     0.044485
   33 H     -2.541518     3.042188     2.712400     0.111352     0.016905    -0.027953     0.038709     0.050650    -0.013812     0.004981    -0.008010    -0.015577     0.041572    -0.022872     0.001561     0.021311
   34 H     -3.759432     5.137581     3.249077     0.101008    -0.007051     0.013596     0.050145     0.052432    -0.016852    -0.001191     0.002585    -0.018989     0.048983    -0.027592     0.009840     0.017752
   35 H     -4.616891     6.570842     1.434381     0.106524    -0.023946     0.040729     0.012580     0.048893    -0.017722    -0.002608     0.004993    -0.020344     0.025621    -0.024790     0.005487     0.019303
   36 H     -4.903286     7.015096    -0.968060     0.104134    -0.024532     0.041805     0.008423     0.049198    -0.019469     0.000680    -0.000637    -0.022080     0.016902    -0.025285     0.005511     0.019774
   37 H     -4.548372     6.362475    -3.316059     0.101202    -0.017556     0.029553    -0.037542     0.050902    -0.018675     0.002684    -0.003843    -0.020725     0.038396    -0.027844     0.009001     0.018843
   38 H     -3.329389     4.265384    -3.856158     0.100255     0.007967    -0.014649    -0.049304     0.052048    -0.017278    -0.001659     0.003655    -0.019748     0.047563    -0.027916     0.009402     0.018514
   39 H     -2.471048     2.830563    -2.057078     0.103677     0.026084    -0.045130    -0.019289     0.055580    -0.016620    -0.009587     0.016823    -0.019351     0.025179    -0.023513    -0.007966     0.031479
   40 C      0.162768    -1.649452    -0.531014     0.033692    -0.015629     0.027457     0.017591     0.036160    -0.014409    -0.008021     0.015079    -0.016906    -0.109911    -0.039650     0.000454     0.039196
   41 C      0.374531    -2.036024    -1.830093    -0.142999     0.019822    -0.034228    -0.011967     0.041325    -0.016833     0.015722    -0.024466    -0.019713     0.061505    -0.031234    -0.013888     0.045122
   42 C      1.067234    -3.227800    -2.134031    -0.088745    -0.017803     0.031554     0.018932     0.040878    -0.026760    -0.009015     0.016140    -0.031492     0.147467    -0.057087     0.000408     0.056679
   43 C      1.542314    -4.022754    -1.129366    -0.150625    -0.005945     0.010497     0.016389     0.020350    -0.044854    -0.010629     0.017423    -0.050365    -0.022265    -0.049134    -0.012644     0.061777
   44 C      1.346778    -3.662831     0.227691     0.072229     0.001519    -0.000917     0.001927     0.002619    -0.019533     0.002839    -0.003111    -0.020910     0.145196    -0.047787    -0.001692     0.049480
   45 C      1.829859    -4.470299     1.288664    -0.143274    -0.011762     0.019506    -0.009162     0.024551    -0.053096    -0.005558     0.011529    -0.059431    -0.040413    -0.055527    -0.014573     0.070099
   46 C      1.632041    -4.107229     2.591853    -0.093521    -0.019203     0.031416    -0.006314     0.037357    -0.038313     0.019460    -0.032248    -0.041620     0.083071    -0.058917    -0.008119     0.067036
   47 C      0.939241    -2.915236     2.898466    -0.090038     0.014377    -0.023971    -0.020929     0.034919    -0.027406    -0.012215     0.023910    -0.029607     0.161093    -0.059492    -0.006590     0.066083
   48 C      0.460674    -2.114476     1.898222    -0.131341     0.008668    -0.015766    -0.019940     0.026857    -0.035753    -0.016344     0.029498    -0.042371    -0.025638    -0.038770    -0.023814     0.062584
   49 C      0.649693    -2.463453     0.535863     0.023790     0.001068    -0.001609     0.015886     0.016003    -0.024010     0.007674    -0.009486    -0.025578     0.119161    -0.048441     0.004021     0.044420
   50 H      0.000923    -1.411100    -2.633861     0.110757    -0.016998     0.028718    -0.038652     0.051065    -0.013827     0.005066    -0.007642    -0.015382     0.041726    -0.022868     0.001808     0.021060
   51 H      1.218788    -3.506421    -3.170605     0.102203     0.007151    -0.013755    -0.049181     0.051566    -0.016858    -0.001093     0.002352    -0.018937     0.049846    -0.027729     0.009929     0.017800
   52 H      2.075656    -4.940157    -1.355895     0.105851     0.023711    -0.041113    -0.012445     0.049065    -0.017939    -0.002677     0.005068    -0.020323     0.026625    -0.025140     0.005669     0.019471
   53 H      2.361380    -5.384849     1.046385     0.103272     0.024344    -0.042111    -0.008678     0.049410    -0.019763     0.000664    -0.000658    -0.022282     0.016554    -0.025531     0.005395     0.020136
   54 H      2.006016    -4.732597     3.394536     0.099954     0.018193    -0.029994     0.038020     0.051731    -0.018480     0.002249    -0.003896    -0.021050     0.039202    -0.027885     0.009240     0.018644
   55 H      0.787162    -2.635473     3.934670     0.100243    -0.008218     0.014614     0.049162     0.051943    -0.017324    -0.001771     0.003884    -0.019624     0.048115    -0.028018     0.009167     0.018851
   56 H     -0.070686    -1.200315     2.135740     0.105768    -0.025812     0.044321     0.019119     0.054737    -0.016487    -0.009280     0.016912    -0.019163     0.025082    -0.023341    -0.007964     0.031306
 
The sperically averaged electron density of each atom fit to a function of the form exp(a - br) for r >=rmin_cloud_penetration
atom number,atomic symbol, x, y, z, a, b, Rsquared where a and b are in atomic units and Rsquared is the squared correlation coefficient
    1 C     -4.067698    -1.627780    -0.056377     2.100617     2.467245     0.997933
    2 C     -2.715833    -1.621021    -0.196003     1.047930     2.175864     0.999911
    3 C     -1.967081    -0.405617    -0.087588     0.918159     2.145391     0.999471
    4 C     -0.572883    -0.384487    -0.238077     0.104827     1.971794     0.999564
    5 C      0.132877     0.820552    -0.108983     0.985726     2.158524     0.999343
    6 C      1.557539     0.874202    -0.239478     1.023374     2.171567     0.999922
    7 C      2.229816     2.049375    -0.120604     2.068848     2.460655     0.997792
    8 C      1.526483     3.258443     0.135176     2.063744     2.458867     0.997852
    9 C      0.174612     3.251682     0.274785     0.999280     2.166902     0.999925
   10 C     -0.574130     2.036276     0.166418     0.779892     2.118726     0.999653
   11 C     -1.968356     2.015184     0.316731     0.127134     1.976747     0.999558
   12 C     -2.674088     0.810092     0.187905     0.920653     2.145821     0.999470
   13 C     -4.098735     0.756403     0.318608     0.988688     2.164841     0.999925
   14 C     -4.771020    -0.418751     0.199619     2.085125     2.463258     0.997887
   15 H     -4.616940    -2.558569    -0.141093     0.173795     2.594460     0.999388
   16 H     -2.182355    -2.542801    -0.393285    -0.720555     2.261776     0.999349
   17 H      2.095177    -0.045175    -0.436672    -0.713834     2.262790     0.999328
   18 H      3.308966     2.069380    -0.221890     0.162939     2.593495     0.999363
   19 H      2.075722     4.189238     0.219817     0.160705     2.592772     0.999371
   20 H     -0.358870     4.173439     0.472169    -0.714459     2.262841     0.999343
   21 H     -4.636319     1.675714     0.516239    -0.734738     2.258990     0.999366
   22 H     -5.850154    -0.438801     0.301053     0.170058     2.594303     0.999381
   23 C     -2.704002     3.280192     0.609504     0.414624     2.030041     0.999366
   24 C     -2.915412     3.666973     1.908663     1.288062     2.232334     0.999172
   25 C     -3.608095     4.858695     2.212543     1.872029     2.419777     0.998478
   26 C     -4.083534     5.653452     1.207812     1.990484     2.401476     0.999655
   27 C     -3.888334     5.293325    -0.149167     1.068573     2.198523     0.999373
   28 C     -4.371720     6.100543    -1.210236     2.223543     2.444634     0.999522
   29 C     -4.174144     5.737263    -2.513369     2.740319     2.575267     0.999180
   30 C     -3.481274     4.545254    -2.819955     1.932459     2.430864     0.998125
   31 C     -3.002445     3.744733    -1.819699     0.878892     2.139151     0.999832
   32 C     -3.191213     4.093929    -0.457290     1.673598     2.281088     0.994040
   33 H     -2.541518     3.042188     2.712400    -1.217994     2.248963     0.999953
   34 H     -3.759432     5.137581     3.249077     0.186336     2.598653     0.999167
   35 H     -4.616891     6.570842     1.434381     0.599804     2.635885     0.998548
   36 H     -4.903286     7.015096    -0.968060     0.575523     2.627601     0.998745
   37 H     -4.548372     6.362475    -3.316059     1.267599     2.801459     0.997869
   38 H     -3.329389     4.265384    -3.856158    -0.192596     2.529538     0.998698
   39 H     -2.471048     2.830563    -2.057078    -1.379989     2.133535     0.999817
   40 C      0.162768    -1.649452    -0.531014     0.379489     2.022456     0.999404
   41 C      0.374531    -2.036024    -1.830093     1.290279     2.233382     0.999175
   42 C      1.067234    -3.227800    -2.134031     1.832622     2.411654     0.998350
   43 C      1.542314    -4.022754    -1.129366     2.004778     2.405286     0.999663
   44 C      1.346778    -3.662831     0.227691     1.068378     2.197984     0.999362
   45 C      1.829859    -4.470299     1.288664     2.295249     2.459752     0.999503
   46 C      1.632041    -4.107229     2.591853     2.741807     2.575952     0.999103
   47 C      0.939241    -2.915236     2.898466     1.993045     2.442624     0.998413
   48 C      0.460674    -2.114476     1.898222     0.891574     2.140935     0.999803
   49 C      0.649693    -2.463453     0.535863     1.678926     2.282152     0.994028
   50 H      0.000923    -1.411100    -2.633861    -1.215054     2.249420     0.999958
   51 H      1.218788    -3.506421    -3.170605     0.184724     2.598111     0.999142
   52 H      2.075656    -4.940157    -1.355895     0.619981     2.638810     0.998622
   53 H      2.361380    -5.384849     1.046385     0.609332     2.633007     0.998731
   54 H      2.006016    -4.732597     3.394536     1.097730     2.761058     0.998072
   55 H      0.787162    -2.635473     3.934670    -0.165474     2.534086     0.998822
   56 H     -0.070686    -1.200315     2.135740    -1.318073     2.145758     0.999760
 
  
 Since the system is non-periodic, the total dipole and quadrupole moments were computed relative to the system center of mass.
 Multipole moments (in atomic units) using the net atomic charges:
 Partial_charge_dipole_x =   -0.0011   Partial_charge_dipole_y =   -0.0000   Partial_charge_dipole_z =   -0.0020     Partial_charge_dipole_magnitude =    0.0022
 Partial_charge_quadrupole_xy =   -5.5247   Partial_charge_quadrupole_xz =   -0.4096   Partial_charge_quadrupole_yz =    0.8014   Partial_charge_quadrupole_x2minusy2 =   -6.2258   Partial_charge_quadrupole_3z2minusr2 =   -3.2382
 Eigenvalues of traceless quadrupole moment tensor =   -5.8022  -1.1790   6.9812
 Multipole moments (in atomic units) using the net atomic charges and atomic dipoles:
 Dipole_x =   -0.0000   Dipole_y =   -0.0000   Dipole_z =    0.0001   Dipole_magnitude =    0.0001
 Quadrupole_xy =   -6.3449   Quadrupole_xz =   -0.5413   Quadrupole_yz =    1.0570   Quadrupole_x2minusy2 =   -7.1784   Quadrupole_3z2minusr2 =   -3.0561
 Eigenvalues of traceless quadrupole moment tensor =   -6.7811  -1.1746   7.9558
 Multipole moments (in atomic units) using the net atomic charges, atomic dipoles, and atomic quadrupoles:
 Dipole_x =   -0.0000   Dipole_y =   -0.0000   Dipole_z =    0.0001   Dipole_magnitude =    0.0001
 Full_quadrupole_xy =   -7.3166   Full_quadrupole_xz =   -0.7074   Full_quadrupole_yz =    1.3528   Full_quadrupole_x2minusy2 =   -8.2804   Full_quadrupole_3z2minusr2 =   -3.6989
 Eigenvalues of traceless quadrupole moment tensor =   -7.7910  -1.4542   9.2452
  
 2021/05/27  21:18:15
